REMARK  5 active torsions:
REMARK  status: ('A' for Active; 'I' for Inactive)
REMARK    1  A    between atoms: C1_1  and  C2_2 
REMARK    2  A    between atoms: C2_2  and  C3_3 
REMARK    3  A    between atoms: C2_2  and  C8_8 
REMARK    4  A    between atoms: C2_2  and  O1_11 
REMARK    5  A    between atoms: C4_4  and  C5_5 
ROOT
ATOM      1  C2  <0> d           0.002  -0.004   0.002  0.00  0.00     0.121 C 
ENDROOT
BRANCH   1   2
ATOM      2  C1  <0> d          -0.019   1.526   0.010  0.00  0.00    -0.037 C 
ATOM      3  H1  <0> d           1.004   1.903   0.003  0.00  0.00     0.033 H 
ATOM      4  H2  <0> d          -0.546   1.887  -0.873  0.00  0.00     0.033 H 
ATOM      5  H3  <0> d          -0.529   1.877   0.907  0.00  0.00     0.033 H 
ENDBRANCH   1   2
BRANCH   1   6
ATOM      6  C3  <0> d           0.714  -0.492   1.195  0.00  0.00    -0.068 C 
ATOM      7  C4  <0> d           1.282  -0.881   2.146  0.00  0.00    -0.099 C 
BRANCH   7   8
ATOM      8  C5  <0> d           1.994  -1.368   3.338  0.00  0.00     0.006 A 
ATOM      9  C7  <0> d           2.123  -2.883   3.514  0.00  0.00    -0.051 A 
ATOM     10  C6  <0> d           3.346  -2.051   3.124  0.00  0.00    -0.051 A 
ATOM     11  H7  <0> d           2.085  -3.276   4.529  0.00  0.00     0.035 H 
ATOM     12  H8  <0> d           1.681  -3.518   2.746  0.00  0.00     0.035 H 
ATOM     13  H5  <0> d           3.709  -2.139   2.100  0.00  0.00     0.035 H 
ATOM     14  H6  <0> d           4.113  -1.897   3.883  0.00  0.00     0.035 H 
ATOM     15  H4  <0> d           1.871  -0.766   4.238  0.00  0.00     0.059 H 
ENDBRANCH   7   8
ENDBRANCH   1   6
BRANCH   1  16
ATOM     16  C8  <0> d          -1.433  -0.534   0.013  0.00  0.00    -0.013 A 
ATOM     17  C10 <0> d          -1.627  -2.047   0.125  0.00  0.00    -0.058 A 
ATOM     18  C9  <0> d          -1.951  -1.144   1.317  0.00  0.00    -0.058 A 
ATOM     19  H12 <0> d          -2.465  -2.489  -0.415  0.00  0.00     0.033 H 
ATOM     20  H13 <0> d          -0.732  -2.666   0.191  0.00  0.00     0.033 H 
ATOM     21  H10 <0> d          -1.269  -1.169   2.167  0.00  0.00     0.033 H 
ATOM     22  H11 <0> d          -3.002  -0.992   1.561  0.00  0.00     0.033 H 
ATOM     23  H9  <0> d          -2.144   0.021  -0.601  0.00  0.00     0.046 H 
ENDBRANCH   1  16
BRANCH   1  24
ATOM     24  O1  <0> d           0.671  -0.465  -1.174  0.00  0.00    -0.378 OA
ATOM     25  H14 <0> d           0.722  -1.428  -1.246  0.00  0.00     0.211 HD
ENDBRANCH   1  24
TORSDOF 5
