REMARK  1 active torsions:
REMARK  status: ('A' for Active; 'I' for Inactive)
REMARK    1  A    between atoms: C4_5  and  C5_7 
ROOT
ATOM      1  C5  <0> d          -0.690  -0.543  -1.252  0.00  0.00     0.020 C 
ATOM      2  C6  <0> d          -0.763  -2.011  -1.179  0.00  0.00     0.059 C 
ATOM      3  N1  <0> d          -0.820  -3.144  -1.123  0.00  0.00    -0.197 NA
ATOM      4  H8  <0> d          -1.697  -0.131  -1.317  0.00  0.00     0.055 H 
ATOM      5  H9  <0> d          -0.120  -0.251  -2.135  0.00  0.00     0.055 H 
ENDROOT
BRANCH   1   6
ATOM      6  C4  <0> d           0.002  -0.004   0.002  0.00  0.00    -0.020 C 
ATOM      7  C1  <0> d          -0.019   1.541   0.011  0.00  0.00    -0.039 C 
ATOM      8  C2  <0> d           1.474   1.937  -0.002  0.00  0.00     0.020 C 
ATOM      9  H2  <0> d          -0.505   1.911   0.913  0.00  0.00     0.036 H 
ATOM     10  H3  <0> d          -0.522   1.921  -0.879  0.00  0.00     0.036 H 
ATOM     11  O1  <0> d           2.163   0.795   0.553  0.00  0.00    -0.391 OA
ATOM     12  H4  <0> d           1.809   2.123  -1.022  0.00  0.00     0.074 H 
ATOM     13  H5  <0> d           1.639   2.817   0.619  0.00  0.00     0.074 H 
ATOM     14  C3  <0> d           1.506  -0.359  -0.014  0.00  0.00     0.024 C 
ATOM     15  H6  <0> d           1.845  -0.525  -1.037  0.00  0.00     0.074 H 
ATOM     16  H7  <0> d           1.694  -1.242   0.597  0.00  0.00     0.074 H 
ATOM     17  H1  <0> d          -0.473  -0.397   0.900  0.00  0.00     0.044 H 
ENDBRANCH   1   6
TORSDOF 1
