REMARK  0 active torsions:
REMARK  status: ('A' for Active; 'I' for Inactive)
ROOT
ATOM      1  C1  <0> d           2.341   1.352  -0.013  0.00  0.00    -0.040 A 
ATOM      2  C2  <0> d           2.350  -0.035  -0.020  0.00  0.00    -0.039 A 
ATOM      3  C3  <0> d           1.129  -0.695  -0.013  0.00  0.00     0.148 A 
ATOM      4  N1  <0> d           0.002  -0.004   0.002  0.00  0.00    -0.137 NA
ATOM      5  N2  <0> d          -0.015   1.279   0.009  0.00  0.00    -0.138 NA
ATOM      6  C4  <0> d           1.101   1.999   0.002  0.00  0.00     0.159 A 
ATOM      7  C5  <0> d           1.036   3.430   0.010  0.00  0.00     0.121 C 
ATOM      8  N3  <0> d           0.984   4.564   0.016  0.00  0.00    -0.190 NA
ATOM      9 Cl1  <0> d           1.083  -2.431  -0.021  0.00  0.00    -0.061 Cl
ATOM     10  H1  <0> d           3.263   1.915  -0.018  0.00  0.00     0.088 H 
ATOM     11  H2  <0> d           3.279  -0.585  -0.031  0.00  0.00     0.088 H 
ENDROOT
TORSDOF 0
