REMARK  2 active torsions:
REMARK  status: ('A' for Active; 'I' for Inactive)
REMARK    1  A    between atoms: C6_6  and  N1_7 
REMARK    2  A    between atoms: C7_9  and  N3_11 
ROOT
ATOM      1  C1  <0> d           3.218   3.165  -0.012  0.00  0.00    -0.055 A 
ATOM      2  C2  <0> d           1.843   3.038   0.001  0.00  0.00    -0.046 A 
ATOM      3  C3  <0> d           1.264   1.780  -0.001  0.00  0.00     0.108 A 
ATOM      4  C4  <0> d           2.076   0.636  -0.014  0.00  0.00     0.097 A 
ATOM      5  C5  <0> d           3.464   0.771  -0.027  0.00  0.00    -0.027 A 
ATOM      6  C6  <0> d           4.029   2.035  -0.026  0.00  0.00     0.028 A 
ATOM      7  N2  <0> d           1.237  -0.437  -0.012  0.00  0.00    -0.206 NA
ATOM      8  C7  <0> d           0.002  -0.004   0.002  0.00  0.00     0.245 A 
ATOM      9  O1  <0> d          -0.016   1.340   0.009  0.00  0.00    -0.276 OA
ATOM     10  H1  <0> d           3.666   4.148  -0.011  0.00  0.00     0.087 H 
ATOM     11  H2  <0> d           1.220   3.920   0.012  0.00  0.00     0.087 H 
ATOM     12  H3  <0> d           4.095  -0.106  -0.038  0.00  0.00     0.090 H 
ENDROOT
BRANCH   6  13
ATOM     13  N1  <0> d           5.421   2.176  -0.039  0.00  0.00    -0.399 N 
ATOM     14  H4  <0> d           6.064   1.283  -0.051  0.00  0.00     0.156 HD
ATOM     15  H5  <0> d           5.872   3.179  -0.038  0.00  0.00     0.156 HD
ENDBRANCH   6  13
BRANCH   8  16
ATOM     16  N3  <0> d          -1.115  -0.808   0.009  0.00  0.00    -0.363 N 
ATOM     17  H6  <0> d          -2.118  -0.356   0.021  0.00  0.00     0.159 HD
ATOM     18  H7  <0> d          -1.006  -1.902   0.003  0.00  0.00     0.159 HD
ENDBRANCH   8  16
TORSDOF 2
