REMARK  1 active torsions:
REMARK  status: ('A' for Active; 'I' for Inactive)
REMARK    1  A    between atoms: C3_5  and  C4_6 
ROOT
ATOM      1  C1  <0> d          -0.489   3.438   1.921  0.00  0.00    -0.026 A 
ATOM      2  C2  <0> d          -1.413   3.409   2.991  0.00  0.00     0.031 A 
ATOM      3  N1  <0> d          -2.077   2.296   2.873  0.00  0.00    -0.141 NA
ATOM      4  O1  <0> d          -1.711   1.658   1.913  0.00  0.00    -0.211 OA
ATOM      5  C3  <0> d          -0.728   2.285   1.252  0.00  0.00     0.167 A 
ATOM      6  H1  <0> d           0.237   4.203   1.690  0.00  0.00     0.090 H 
ATOM      7  H2  <0> d          -1.539   4.160   3.757  0.00  0.00     0.118 H 
ENDROOT
BRANCH   5   8
ATOM      8  C4  <0> d          -0.022   1.799   0.012  0.00  0.00     0.372 C 
ATOM      9  F1  <0> d           1.290   2.283   0.002  0.00  0.00    -0.180 F 
ATOM     10  F2  <0> d          -0.699   2.262  -1.121  0.00  0.00    -0.180 F 
ATOM     11 Cl1  <0> d           0.002  -0.004   0.002  0.00  0.00    -0.040 Cl
ENDBRANCH   5   8
TORSDOF 1
