REMARK  2 active torsions:
REMARK  status: ('A' for Active; 'I' for Inactive)
REMARK    1  A    between atoms: C1_1  and  N1_2 
REMARK       I    between atoms: N1_2  and  C2_3 
REMARK    2  A    between atoms: C2_3  and  C3_5 
ROOT
ATOM      1  C3  <0> d          -1.136  -2.175   0.001  0.00  0.00     0.037 A 
ATOM      2  C4  <0> d           0.074  -2.877  -0.008  0.00  0.00    -0.051 A 
ATOM      3  C5  <0> d           0.049  -4.258  -0.016  0.00  0.00     0.006 A 
ATOM      4  N2  <0> d          -1.095  -4.914  -0.014  0.00  0.00    -0.233 NA
ATOM      5  C6  <0> d          -2.259  -4.293  -0.006  0.00  0.00     0.210 A 
ATOM      6  C7  <0> d          -2.324  -2.909   0.009  0.00  0.00    -0.012 A 
ATOM      7  F1  <0> d          -3.401  -5.014  -0.005  0.00  0.00    -0.184 F 
ATOM      8  H5  <0> d           1.015  -2.347  -0.010  0.00  0.00     0.087 H 
ATOM      9  H6  <0> d           0.978  -4.807  -0.023  0.00  0.00     0.114 H 
ATOM     10  H7  <0> d          -3.280  -2.405   0.021  0.00  0.00     0.092 H 
ENDROOT
BRANCH   1  11
ATOM     11  C2  <0> d          -1.156  -0.694   0.009  0.00  0.00     0.251 C 
ATOM     12  N1  <0> d           0.002  -0.004   0.002  0.00  0.00    -0.361 N 
ATOM     13  H4  <0> d           0.849  -0.478  -0.009  0.00  0.00     0.162 HD
ATOM     14  O1  <0> d          -2.216  -0.101   0.023  0.00  0.00    -0.268 OA
BRANCH  12  15
ATOM     15  C1  <0> d          -0.018   1.461   0.010  0.00  0.00    -0.018 C 
ATOM     16  H1  <0> d           1.005   1.838   0.002  0.00  0.00     0.056 H 
ATOM     17  H2  <0> d          -0.545   1.822  -0.873  0.00  0.00     0.056 H 
ATOM     18  H3  <0> d          -0.528   1.812   0.907  0.00  0.00     0.056 H 
ENDBRANCH  12  15
ENDBRANCH   1  11
TORSDOF 2
