REMARK  3 active torsions:
REMARK  status: ('A' for Active; 'I' for Inactive)
REMARK    1  A    between atoms: C1_1  and  C2_2 
REMARK    2  A    between atoms: C2_2  and  C3_4 
REMARK    3  A    between atoms: C2_2  and  N1_6 
ROOT
ATOM      1  C2  <0> d           1.235   3.094   0.007  0.00  0.00     0.114 C 
ATOM      2  H1  <0> d           0.744   3.473   0.904  0.00  0.00     0.092 H 
ENDROOT
BRANCH   1   3
ATOM      3  C1  <0> d           0.522   3.639  -1.233  0.00  0.00    -0.046 C 
ATOM      4  H2  <0> d          -0.519   3.315  -1.224  0.00  0.00     0.031 H 
ATOM      5  H3  <0> d           0.564   4.728  -1.227  0.00  0.00     0.031 H 
ATOM      6  H4  <0> d           1.013   3.260  -2.130  0.00  0.00     0.031 H 
ENDBRANCH   1   3
BRANCH   1   7
ATOM      7  C3  <0> d           1.177   1.588  -0.001  0.00  0.00     0.198 C 
ATOM      8  O1  <0> d           2.199   0.944  -0.014  0.00  0.00    -0.646 OA
ATOM      9  O2  <0> d          -0.011   0.963   0.007  0.00  0.00    -0.646 OA
ENDBRANCH   1   7
BRANCH   1  10
ATOM     10  N1  <0> d           2.634   3.529  -0.004  0.00  0.00    -0.267 N 
ATOM     11  N2  <0> d           3.152   4.655   0.647  0.00  0.00    -0.184 NA
ATOM     12  C6  <0> d           4.437   4.713   0.405  0.00  0.00     0.023 A 
ATOM     13  C5  <0> d           4.777   3.626  -0.407  0.00  0.00    -0.048 A 
ATOM     14  H7  <0> d           5.117   5.469   0.770  0.00  0.00     0.117 H 
ATOM     15  C4  <0> d           3.652   2.911  -0.639  0.00  0.00     0.001 A 
ATOM     16  H6  <0> d           5.765   3.396  -0.779  0.00  0.00     0.087 H 
ATOM     17  H5  <0> d           3.581   2.009  -1.228  0.00  0.00     0.114 H 
ENDBRANCH   1  10
TORSDOF 3
