REMARK  5 active torsions:
REMARK  status: ('A' for Active; 'I' for Inactive)
REMARK    1  A    between atoms: C1_1  and  C2_2 
REMARK    2  A    between atoms: C2_2  and  C3_3 
REMARK    3  A    between atoms: C2_2  and  O1_4 
REMARK    4  A    between atoms: O1_4  and  C4_5 
REMARK    5  A    between atoms: C4_5  and  C5_7 
ROOT
ATOM      1  O1  <0> d          -1.339  -0.499   0.012  0.00  0.00    -0.312 OA
ENDROOT
BRANCH   1   2
ATOM      2  C2  <0> d           0.002  -0.004   0.002  0.00  0.00     0.041 C 
ATOM      3  H5  <0> d           0.512  -0.356  -0.895  0.00  0.00     0.083 H 
BRANCH   2   4
ATOM      4  C1  <0> d          -0.019   1.526   0.010  0.00  0.00    -0.052 C 
ATOM      5  H2  <0> d           1.004   1.903   0.003  0.00  0.00     0.030 H 
ATOM      6  H3  <0> d          -0.546   1.887  -0.873  0.00  0.00     0.030 H 
ATOM      7  H4  <0> d          -0.529   1.877   0.907  0.00  0.00     0.030 H 
ENDBRANCH   2   4
BRANCH   2   8
ATOM      8  C3  <0> d           0.742  -0.511   1.242  0.00  0.00    -0.052 C 
ATOM      9  H6  <0> d           0.232  -0.159   2.138  0.00  0.00     0.030 H 
ATOM     10  H7  <0> d           0.757  -1.601   1.236  0.00  0.00     0.030 H 
ATOM     11  H8  <0> d           1.765  -0.134   1.234  0.00  0.00     0.030 H 
ENDBRANCH   2   8
ENDBRANCH   1   2
BRANCH   1  12
ATOM     12  C4  <0> d          -1.924  -0.704  -1.185  0.00  0.00     0.311 C 
ATOM     13  O2  <0> d          -1.313  -0.469  -2.209  0.00  0.00    -0.258 OA
BRANCH  12  14
ATOM     14  C5  <0> d          -3.302  -1.212  -1.251  0.00  0.00     0.126 A 
ATOM     15  N2  <0> d          -4.114  -1.521  -0.197  0.00  0.00    -0.273 N 
ATOM     16  N1  <0> d          -5.250  -1.933  -0.633  0.00  0.00    -0.187 NA
ATOM     17  H1  <0> d          -3.871  -1.440   0.739  0.00  0.00     0.189 HD
ATOM     18  C7  <0> d          -5.274  -1.937  -1.942  0.00  0.00     0.024 A 
ATOM     19  C6  <0> d          -4.036  -1.478  -2.395  0.00  0.00    -0.031 A 
ATOM     20  H10 <0> d          -6.105  -2.241  -2.561  0.00  0.00     0.117 H 
ATOM     21  H9  <0> d          -3.718  -1.357  -3.420  0.00  0.00     0.089 H 
ENDBRANCH  12  14
ENDBRANCH   1  12
TORSDOF 5
