REMARK  1 active torsions:
REMARK  status: ('A' for Active; 'I' for Inactive)
REMARK    1  A    between atoms: C3_3  and  N4_11 
ROOT
ATOM      1  C1  <0> d          -0.017   1.365   0.009  0.00  0.00    -0.048 A 
ATOM      2  C2  <0> d           0.002  -0.004   0.002  0.00  0.00    -0.037 A 
ATOM      3  C3  <0> d           1.223  -0.677  -0.013  0.00  0.00     0.123 A 
ATOM      4  N1  <0> d           2.369  -0.017  -0.021  0.00  0.00    -0.212 NA
ATOM      5  C4  <0> d           2.401   1.308  -0.014  0.00  0.00     0.159 A 
ATOM      6  C5  <0> d           1.206   2.047   0.002  0.00  0.00     0.104 A 
ATOM      7  N2  <0> d           1.548   3.361   0.005  0.00  0.00    -0.240 NA
ATOM      8  C6  <0> d           2.844   3.472  -0.006  0.00  0.00     0.066 A 
ATOM      9  N3  <0> d           3.418   2.237  -0.019  0.00  0.00    -0.334 N 
ATOM     10  H1  <0> d           4.399   2.040  -0.029  0.00  0.00     0.168 HD
ATOM     11  H2  <0> d          -0.952   1.905   0.017  0.00  0.00     0.087 H 
ATOM     12  H3  <0> d          -0.924  -0.560   0.008  0.00  0.00     0.089 H 
ATOM     13  H4  <0> d           3.385   4.407  -0.007  0.00  0.00     0.143 H 
ENDROOT
BRANCH   3  14
ATOM     14  N4  <0> d           1.236  -2.067  -0.020  0.00  0.00    -0.384 N 
ATOM     15  H5  <0> d           0.401  -2.561  -0.015  0.00  0.00     0.157 HD
ATOM     16  H6  <0> d           2.081  -2.544  -0.031  0.00  0.00     0.157 HD
ENDBRANCH   3  14
TORSDOF 1
