REMARK  1 active torsions:
REMARK  status: ('A' for Active; 'I' for Inactive)
REMARK    1  A    between atoms: C2_2  and  C4_7 
ROOT
ATOM      1  C1  <0> d          -0.020   3.036   0.018  0.00  0.00     0.037 A 
ATOM      2  C2  <0> d          -1.087   1.948   0.016  0.00  0.00     0.104 A 
ATOM      3  H1  <0> d          -1.694   1.936  -0.889  0.00  0.00     0.090 H 
ATOM      4  N1  <0> d          -0.011   0.966   0.007  0.00  0.00    -0.346 N 
ATOM      5  C3  <0> d           0.952   1.895   0.003  0.00  0.00     0.220 A 
ATOM      6  O1  <0> d           2.164   1.835  -0.008  0.00  0.00    -0.274 OA
ATOM      7  H2  <0> d           0.009   3.631   0.930  0.00  0.00     0.051 H 
ATOM      8  H3  <0> d          -0.006   3.642  -0.889  0.00  0.00     0.051 H 
ATOM      9  H4  <0> d           0.002  -0.004   0.002  0.00  0.00     0.163 HD
ENDROOT
BRANCH   2  10
ATOM     10  C4  <0> d          -1.916   1.919   1.274  0.00  0.00     0.197 C 
ATOM     11  O2  <0> d          -1.651   1.135   2.155  0.00  0.00    -0.646 OA
ATOM     12  O3  <0> d          -2.950   2.764   1.417  0.00  0.00    -0.646 OA
ENDBRANCH   2  10
TORSDOF 1
