REMARK  0 active torsions:
REMARK  status: ('A' for Active; 'I' for Inactive)
ROOT
ATOM      1  C1  <0> d           2.337   1.400  -0.013  0.00  0.00    -0.063 A 
ATOM      2  C2  <0> d           2.406   0.013  -0.021  0.00  0.00    -0.047 A 
ATOM      3  C3  <0> d           1.219  -0.701  -0.013  0.00  0.00     0.097 A 
ATOM      4  C4  <0> d           0.002  -0.004   0.002  0.00  0.00     0.089 A 
ATOM      5  N1  <0> d          -0.016   1.320   0.009  0.00  0.00    -0.258 NA
ATOM      6  C5  <0> d           1.101   2.021   0.002  0.00  0.00     0.003 A 
ATOM      7  C6  <0> d          -1.251  -0.791   0.009  0.00  0.00    -0.054 C 
ATOM      8  C7  <0> d          -1.181  -2.080   0.332  0.00  0.00    -0.078 C 
ATOM      9  C8  <0> d           0.144  -2.698   0.691  0.00  0.00     0.041 C 
ATOM     10  O1  <0> d           1.205  -2.056  -0.018  0.00  0.00    -0.345 OA
ATOM     11  H1  <0> d           3.242   1.989  -0.018  0.00  0.00     0.085 H 
ATOM     12  H2  <0> d           3.359  -0.495  -0.032  0.00  0.00     0.087 H 
ATOM     13  H3  <0> d           1.050   3.100   0.008  0.00  0.00     0.114 H 
ATOM     14  H4  <0> d          -2.222  -0.339  -0.244  0.00  0.00     0.086 H 
ATOM     15  H5  <0> d          -2.092  -2.696   0.338  0.00  0.00     0.080 H 
ATOM     16  H6  <0> d           0.319  -2.588   1.772  0.00  0.00     0.081 H 
ATOM     17  H7  <0> d           0.134  -3.766   0.429  0.00  0.00     0.081 H 
ENDROOT
TORSDOF 0
