REMARK  4 active torsions:
REMARK  status: ('A' for Active; 'I' for Inactive)
REMARK    1  A    between atoms: C4_5  and  C8_14 
REMARK    2  A    between atoms: C5_7  and  C7_12 
REMARK    3  A    between atoms: C7_12  and  O2_13 
REMARK    4  A    between atoms: C8_14  and  O3_15 
ROOT
ATOM      1  C1  <0> d           1.267   3.170   0.213  0.00  0.00    -0.076 C 
ATOM      2  C2  <0> d           0.773   3.657  -0.913  0.00  0.00    -0.076 C 
ATOM      3  C3  <0> d           0.618   2.471  -1.869  0.00  0.00     0.061 C 
ATOM      4  H1  <0> d           0.586   2.720  -2.929  0.00  0.00     0.090 H 
ATOM      5  C4  <0> d          -0.586   1.641  -1.324  0.00  0.00     0.003 C 
ATOM      6  H2  <0> d          -0.859   0.830  -1.998  0.00  0.00     0.048 H 
ATOM      7  C5  <0> d          -0.013   1.086   0.008  0.00  0.00     0.003 C 
ATOM      8  H3  <0> d           0.002  -0.004   0.002  0.00  0.00     0.048 H 
ATOM      9  C6  <0> d           1.437   1.664  -0.003  0.00  0.00     0.061 C 
ATOM     10  H4  <0> d           2.148   1.169   0.659  0.00  0.00     0.090 H 
ATOM     11  O1  <0> d           1.749   1.612  -1.436  0.00  0.00    -0.372 OA
ATOM     12  H5  <0> d           1.503   3.725   1.108  0.00  0.00     0.080 H 
ATOM     13  H6  <0> d           0.526   4.688  -1.118  0.00  0.00     0.080 H 
ENDROOT
BRANCH   5  14
ATOM     14  C8  <0> d          -1.781   2.560  -1.064  0.00  0.00     0.023 C 
ATOM     15  H10 <0> d          -2.528   2.028  -0.474  0.00  0.00     0.074 H 
ATOM     16  H11 <0> d          -1.449   3.443  -0.518  0.00  0.00     0.074 H 
BRANCH  14  17
ATOM     17  O3  <0> d          -2.355   2.959  -2.310  0.00  0.00    -0.400 OA
ATOM     18  H12 <0> d          -3.119   3.544  -2.222  0.00  0.00     0.209 HD
ENDBRANCH  14  17
ENDBRANCH   5  14
BRANCH   7  19
ATOM     19  C7  <0> d          -0.803   1.613   1.207  0.00  0.00     0.023 C 
ATOM     20  H7  <0> d          -0.719   2.699   1.249  0.00  0.00     0.074 H 
ATOM     21  H8  <0> d          -1.852   1.333   1.103  0.00  0.00     0.074 H 
BRANCH  19  22
ATOM     22  O2  <0> d          -0.278   1.048   2.410  0.00  0.00    -0.400 OA
ATOM     23  H9  <0> d          -0.732   1.339   3.212  0.00  0.00     0.209 HD
ENDBRANCH  19  22
ENDBRANCH   7  19
TORSDOF 4
