REMARK  2 active torsions:
REMARK  status: ('A' for Active; 'I' for Inactive)
REMARK    1  A    between atoms: C3_3  and  C5_6 
REMARK    2  A    between atoms: C5_6  and  C6_8 
ROOT
ATOM      1  C5  <0> d          -0.014   1.210   0.009  0.00  0.00     0.170 C 
ATOM      2  O1  <0> d           0.002  -0.004   0.002  0.00  0.00    -0.291 OA
ENDROOT
BRANCH   1   3
ATOM      3  C3  <0> d          -1.247   1.900   0.018  0.00  0.00     0.051 A 
ATOM      4  C2  <0> d          -2.540   1.385   0.022  0.00  0.00    -0.062 A 
ATOM      5  C1  <0> d          -3.569   2.289   0.032  0.00  0.00    -0.075 A 
ATOM      6  H2  <0> d          -2.724   0.321   0.017  0.00  0.00     0.085 H 
ATOM      7  C4  <0> d          -3.286   3.620   0.039  0.00  0.00    -0.044 A 
ATOM      8  H1  <0> d          -4.594   1.949   0.036  0.00  0.00     0.084 H 
ATOM      9  S1  <0> d          -1.552   3.657   0.037  0.00  0.00    -0.098 SA
ATOM     10  H3  <0> d          -3.974   4.452   0.048  0.00  0.00     0.095 H 
ENDBRANCH   1   3
BRANCH   1  11
ATOM     11  C6  <0> d           1.280   1.981   0.001  0.00  0.00     0.009 A 
ATOM     12  C8  <0> d           2.522   1.283   0.558  0.00  0.00    -0.054 A 
ATOM     13  C7  <0> d           2.381   1.504  -0.949  0.00  0.00    -0.054 A 
ATOM     14  H7  <0> d           3.248   1.897   1.091  0.00  0.00     0.034 H 
ATOM     15  H8  <0> d           2.403   0.266   0.931  0.00  0.00     0.034 H 
ATOM     16  H5  <0> d           2.169   0.632  -1.568  0.00  0.00     0.034 H 
ATOM     17  H6  <0> d           3.014   2.263  -1.408  0.00  0.00     0.034 H 
ATOM     18  H4  <0> d           1.092   2.950   0.160  0.00  0.00     0.052 H 
ENDBRANCH   1  11
TORSDOF 2
