REMARK  3 active torsions:
REMARK  status: ('A' for Active; 'I' for Inactive)
REMARK    1  A    between atoms: C1_1  and  C2_2 
REMARK    2  A    between atoms: C2_2  and  O1_3 
REMARK    3  A    between atoms: O1_3  and  C3_4 
ROOT
ATOM      1  C3  <0> d           1.096   2.031   0.003  0.00  0.00     0.165 A 
ATOM      2  C4  <0> d           2.338   1.412  -0.013  0.00  0.00    -0.012 A 
ATOM      3  C5  <0> d           2.399   0.017  -0.020  0.00  0.00     0.050 A 
ATOM      4  C6  <0> d           1.194  -0.698  -0.013  0.00  0.00    -0.046 A 
ATOM      5  C7  <0> d           0.002  -0.004   0.002  0.00  0.00     0.006 A 
ATOM      6  N1  <0> d          -0.016   1.315   0.009  0.00  0.00    -0.237 NA
ATOM      7  C8  <0> d           3.658  -0.665  -0.036  0.00  0.00     0.099 C 
ATOM      8  N2  <0> d           4.657  -1.206  -0.048  0.00  0.00    -0.191 NA
ATOM      9  H6  <0> d           3.244   2.001  -0.018  0.00  0.00     0.092 H 
ATOM     10  H7  <0> d           1.198  -1.778  -0.018  0.00  0.00     0.088 H 
ATOM     11  H8  <0> d          -0.930  -0.549   0.008  0.00  0.00     0.114 H 
ENDROOT
BRANCH   1  12
ATOM     12  O1  <0> d           1.021   3.386   0.010  0.00  0.00    -0.335 OA
BRANCH  12  13
ATOM     13  C2  <0> d          -0.285   3.963   0.025  0.00  0.00     0.024 C 
ATOM     14  H4  <0> d          -0.822   3.633   0.927  0.00  0.00     0.074 H 
ATOM     15  H5  <0> d          -0.839   3.642  -0.869  0.00  0.00     0.074 H 
BRANCH  13  16
ATOM     16  C1  <0> d          -0.169   5.489   0.032  0.00  0.00    -0.056 C 
ATOM     17  H1  <0> d          -1.175   5.934   0.043  0.00  0.00     0.030 H 
ATOM     18  H2  <0> d           0.368   5.820  -0.870  0.00  0.00     0.030 H 
ATOM     19  H3  <0> d           0.385   5.811   0.926  0.00  0.00     0.030 H 
ENDBRANCH  13  16
ENDBRANCH  12  13
ENDBRANCH   1  12
TORSDOF 3
