REMARK  3 active torsions:
REMARK  status: ('A' for Active; 'I' for Inactive)
REMARK    1  A    between atoms: C4_4  and  C7_7 
REMARK    2  A    between atoms: C7_7  and  C8_9 
REMARK    3  A    between atoms: C8_9  and  O1_10 
ROOT
ATOM      1  C7  <0> d           1.151   3.592   0.010  0.00  0.00     0.076 C 
ATOM      2  H1  <0> d           0.118   3.942   0.021  0.00  0.00     0.073 H 
ATOM      3  C9  <0> d           1.826   4.098  -1.196  0.00  0.00     0.070 C 
ATOM      4  N1  <0> d           2.348   4.489  -2.126  0.00  0.00    -0.196 NA
ENDROOT
BRANCH   1   5
ATOM      5  C4  <0> d           1.171   2.086   0.002  0.00  0.00    -0.038 A 
ATOM      6  C3  <0> d          -0.017   1.378   0.010  0.00  0.00    -0.075 A 
ATOM      7  C2  <0> d           0.002  -0.004   0.002  0.00  0.00    -0.082 A 
ATOM      8  H4  <0> d          -0.959   1.905   0.017  0.00  0.00     0.084 H 
ATOM      9  C1  <0> d           1.208  -0.679  -0.014  0.00  0.00    -0.083 A 
ATOM     10  H3  <0> d          -0.926  -0.557   0.008  0.00  0.00     0.083 H 
ATOM     11  C6  <0> d           2.396   0.029  -0.021  0.00  0.00    -0.082 A 
ATOM     12  H2  <0> d           1.223  -1.759  -0.020  0.00  0.00     0.083 H 
ATOM     13  C5  <0> d           2.377   1.411  -0.014  0.00  0.00    -0.075 A 
ATOM     14  H6  <0> d           3.339  -0.499  -0.033  0.00  0.00     0.083 H 
ATOM     15  H5  <0> d           3.305   1.963  -0.019  0.00  0.00     0.084 H 
ENDBRANCH   1   5
BRANCH   1  16
ATOM     16  C8  <0> d           1.876   4.106   1.255  0.00  0.00     0.035 C 
ATOM     17  H7  <0> d           1.431   3.660   2.145  0.00  0.00     0.076 H 
ATOM     18  H8  <0> d           2.930   3.832   1.200  0.00  0.00     0.076 H 
BRANCH  16  19
ATOM     19  O1  <0> d           1.757   5.528   1.324  0.00  0.00    -0.399 OA
ATOM     20  H9  <0> d           2.195   5.923   2.090  0.00  0.00     0.209 HD
ENDBRANCH  16  19
ENDBRANCH   1  16
TORSDOF 3
