REMARK  6 active torsions:
REMARK  status: ('A' for Active; 'I' for Inactive)
REMARK    1  A    between atoms: C1_1  and  C2_2 
REMARK    2  A    between atoms: C2_2  and  C3_3 
REMARK    3  A    between atoms: C3_3  and  C4_4 
REMARK    4  A    between atoms: C4_4  and  O1_5 
REMARK    5  A    between atoms: O1_5  and  C5_6 
REMARK    6  A    between atoms: C7_9  and  C8_11 
ROOT
ATOM      1  C4  <0> d          -0.017   1.425   0.010  0.00  0.00     0.020 C 
ATOM      2  H10 <0> d          -0.532   1.780   0.915  0.00  0.00     0.074 H 
ATOM      3  H11 <0> d          -0.549   1.789  -0.881  0.00  0.00     0.074 H 
ENDROOT
BRANCH   1   4
ATOM      4  C3  <0> d           1.418   1.954  -0.001  0.00  0.00    -0.045 C 
ATOM      5  H8  <0> d           1.933   1.600  -0.906  0.00  0.00     0.036 H 
ATOM      6  H9  <0> d           1.950   1.590   0.890  0.00  0.00     0.036 H 
BRANCH   4   7
ATOM      7  C2  <0> d           1.397   3.484   0.007  0.00  0.00    -0.067 C 
ATOM      8  H6  <0> d           0.882   3.839   0.912  0.00  0.00     0.032 H 
ATOM      9  H7  <0> d           0.865   3.849  -0.884  0.00  0.00     0.032 H 
BRANCH   7  10
ATOM     10  C1  <0> d           2.833   4.014  -0.003  0.00  0.00    -0.076 C 
ATOM     11  H3  <0> d           2.818   5.114   0.003  0.00  0.00     0.027 H 
ATOM     12  H4  <0> d           3.348   3.659  -0.908  0.00  0.00     0.027 H 
ATOM     13  H5  <0> d           3.365   3.649   0.888  0.00  0.00     0.027 H 
ENDBRANCH   7  10
ENDBRANCH   4   7
ENDBRANCH   1   4
BRANCH   1  14
ATOM     14  O1  <0> d           0.002  -0.004   0.002  0.00  0.00    -0.385 OA
BRANCH  14  15
ATOM     15  C5  <0> d          -1.295  -0.603   0.011  0.00  0.00     0.052 A 
ATOM     16  H1  <0> d          -1.763   0.390  -0.061  0.00  0.00     0.084 H 
ATOM     17  C7  <0> d          -1.451  -1.962  -0.673  0.00  0.00     0.058 A 
ATOM     18  C6  <0> d          -1.484  -1.867   0.853  0.00  0.00    -0.025 A 
ATOM     19  H2  <0> d          -2.112  -2.379  -1.447  0.00  0.00     0.060 H 
ATOM     20  H12 <0> d          -0.615  -2.000   1.514  0.00  0.00     0.038 H 
ATOM     21  H13 <0> d          -2.396  -1.769   1.461  0.00  0.00     0.038 H 
BRANCH  17  22
ATOM     22  C8  <0> d          -0.224  -2.567  -1.306  0.00  0.00     0.179 C 
ATOM     23  O2  <0> d           0.831  -1.980  -1.260  0.00  0.00    -0.648 OA
ATOM     24  O3  <0> d          -0.303  -3.758  -1.920  0.00  0.00    -0.648 OA
ENDBRANCH  17  22
ENDBRANCH  14  15
ENDBRANCH   1  14
TORSDOF 6
