REMARK  4 active torsions:
REMARK  status: ('A' for Active; 'I' for Inactive)
REMARK    1  A    between atoms: C1_1  and  C2_2 
REMARK    2  A    between atoms: C3_4  and  O4_14 
REMARK    3  A    between atoms: C5_7  and  O3_13 
REMARK    4  A    between atoms: C6_9  and  O2_12 
ROOT
ATOM      1  C2  <0> d           0.792   3.564   1.247  0.00  0.00     0.063 C 
ATOM      2  H1  <0> d           1.373   3.157   2.088  0.00  0.00     0.086 H 
ATOM      3  C3  <0> d          -0.669   3.112   1.308  0.00  0.00     0.062 C 
ATOM      4  H2  <0> d          -1.177   3.511   2.197  0.00  0.00     0.086 H 
ATOM      5  C4  <0> d          -0.723   1.581   1.272  0.00  0.00    -0.010 C 
ATOM      6  C5  <0> d          -0.013   1.086   0.008  0.00  0.00     0.085 C 
ATOM      7  H3  <0> d          -0.036  -0.012  -0.063  0.00  0.00     0.090 H 
ATOM      8  C6  <0> d           1.423   1.617  -0.003  0.00  0.00     0.153 C 
ATOM      9  H4  <0> d           1.984   1.334  -0.906  0.00  0.00     0.132 H 
ATOM     10  O1  <0> d           1.402   3.044   0.064  0.00  0.00    -0.351 OA
ATOM     11  H8  <0> d          -0.220   1.176   2.162  0.00  0.00     0.041 H 
ATOM     12  H9  <0> d          -1.772   1.252   1.261  0.00  0.00     0.041 H 
ENDROOT
BRANCH   1  13
ATOM     13  C1  <0> d           0.852   5.093   1.222  0.00  0.00    -0.050 C 
ATOM     14  H5  <0> d           0.383   5.493   2.133  0.00  0.00     0.031 H 
ATOM     15  H6  <0> d           0.315   5.467   0.338  0.00  0.00     0.031 H 
ATOM     16  H7  <0> d           1.902   5.418   1.177  0.00  0.00     0.031 H 
ENDBRANCH   1  13
BRANCH   3  17
ATOM     17  O4  <0> d          -1.380   3.642   0.188  0.00  0.00    -0.393 OA
ATOM     18  H12 <0> d          -2.451   3.422   0.062  0.00  0.00     0.210 HD
ENDBRANCH   3  17
BRANCH   8  19
ATOM     19  O2  <0> d           2.132   1.098   1.124  0.00  0.00    -0.369 OA
ATOM     20  H10 <0> d           3.185   1.371   1.285  0.00  0.00     0.212 HD
ENDBRANCH   8  19
BRANCH   6  21
ATOM     21  O3  <0> d          -0.706   1.560  -1.148  0.00  0.00    -0.391 OA
ATOM     22  H11 <0> d          -0.340   1.304  -2.153  0.00  0.00     0.210 HD
ENDBRANCH   6  21
TORSDOF 4
