REMARK  3 active torsions:
REMARK  status: ('A' for Active; 'I' for Inactive)
REMARK    1  A    between atoms: C1_1  and  N1_2 
REMARK       I    between atoms: N1_2  and  C2_3 
REMARK    2  A    between atoms: C2_3  and  C3_5 
REMARK    3  A    between atoms: N2_8  and  C5_12 
ROOT
ATOM      1  C3  <0> d          -1.214   3.590   0.027  0.00  0.00     0.214 A 
ATOM      2  C4  <0> d          -2.412   4.453   0.032  0.00  0.00     0.299 A 
ATOM      3  O2  <0> d          -3.577   4.104   0.030  0.00  0.00    -0.264 OA
ATOM      4  N2  <0> d          -1.929   5.718   0.041  0.00  0.00    -0.244 N 
ATOM      5  N3  <0> d          -0.533   5.617   0.034  0.00  0.00    -0.214 N 
ATOM      6  H1  <0> d           0.075   6.373   0.034  0.00  0.00     0.211 HD
ATOM      7  N4  <0> d          -0.169   4.387   0.026  0.00  0.00    -0.147 NA
ENDROOT
BRANCH   1   8
ATOM      8  C2  <0> d          -1.194   2.119   0.019  0.00  0.00     0.277 C 
ATOM      9  N1  <0> d          -0.018   1.461   0.010  0.00  0.00    -0.360 N 
ATOM     10  H5  <0> d           0.816   1.957   0.005  0.00  0.00     0.162 HD
ATOM     11  O1  <0> d          -2.239   1.496   0.021  0.00  0.00    -0.266 OA
BRANCH   9  12
ATOM     12  C1  <0> d           0.002  -0.004   0.002  0.00  0.00    -0.018 C 
ATOM     13  H2  <0> d           1.034  -0.353  -0.010  0.00  0.00     0.056 H 
ATOM     14  H3  <0> d          -0.498  -0.379   0.895  0.00  0.00     0.056 H 
ATOM     15  H4  <0> d          -0.515  -0.370  -0.885  0.00  0.00     0.056 H 
ENDBRANCH   9  12
ENDBRANCH   1   8
BRANCH   4  16
ATOM     16  C5  <0> d          -2.716   6.953   0.051  0.00  0.00     0.005 C 
ATOM     17  H6  <0> d          -2.045   7.812   0.052  0.00  0.00     0.059 H 
ATOM     18  H7  <0> d          -3.349   6.988  -0.836  0.00  0.00     0.059 H 
ATOM     19  H8  <0> d          -3.341   6.979   0.944  0.00  0.00     0.059 H 
ENDBRANCH   4  16
TORSDOF 3
