REMARK  2 active torsions:
REMARK  status: ('A' for Active; 'I' for Inactive)
REMARK    1  A    between atoms: C1_1  and  C2_2 
REMARK    2  A    between atoms: C2_2  and  C3_3 
ROOT
ATOM      1  C1  <0> d          -2.479   0.930   0.019  0.00  0.00     0.024 C 
ATOM      2  C4  <0> d          -3.764   1.648   0.029  0.00  0.00     0.059 C 
ATOM      3  N1  <0> d          -4.755   2.203   0.037  0.00  0.00    -0.197 NA
ATOM      4  H1  <0> d          -2.417   0.309  -0.875  0.00  0.00     0.055 H 
ATOM      5  H2  <0> d          -2.408   0.299   0.905  0.00  0.00     0.055 H 
ENDROOT
BRANCH   1   6
ATOM      6  C2  <0> d          -1.329   1.940   0.019  0.00  0.00     0.027 C 
ATOM      7  H3  <0> d          -1.391   2.561   0.913  0.00  0.00     0.050 H 
ATOM      8  H4  <0> d          -1.400   2.570  -0.867  0.00  0.00     0.050 H 
BRANCH   6   9
ATOM      9  C3  <0> d          -0.014   1.204   0.009  0.00  0.00     0.173 C 
ATOM     10  O1  <0> d           0.002  -0.004   0.002  0.00  0.00    -0.648 OA
ATOM     11  O2  <0> d           1.139   1.891   0.001  0.00  0.00    -0.648 OA
ENDBRANCH   6   9
ENDBRANCH   1   6
TORSDOF 2
