REMARK  4 active torsions:
REMARK  status: ('A' for Active; 'I' for Inactive)
REMARK    1  A    between atoms: N1_4  and  C6_8 
REMARK    2  A    between atoms: C6_8  and  C7_9 
REMARK    3  A    between atoms: C7_9  and  C8_10 
REMARK    4  A    between atoms: C8_10  and  O2_11 
ROOT
ATOM      1  C1  <0> d          -0.016   1.360   0.009  0.00  0.00    -0.076 A 
ATOM      2  C2  <0> d           1.197   2.062   0.002  0.00  0.00    -0.068 A 
ATOM      3  C3  <0> d           2.369   1.385  -0.013  0.00  0.00    -0.017 A 
ATOM      4  N1  <0> d           2.385   0.027  -0.021  0.00  0.00    -0.325 N 
ATOM      5  C4  <0> d           1.237  -0.675  -0.014  0.00  0.00     0.247 A 
ATOM      6  O1  <0> d           1.268  -1.895  -0.021  0.00  0.00    -0.268 OA
ATOM      7  C5  <0> d           0.002  -0.004   0.002  0.00  0.00    -0.017 A 
ATOM      8  H1  <0> d          -0.956   1.893   0.026  0.00  0.00     0.083 H 
ATOM      9  H2  <0> d           1.197   3.142   0.007  0.00  0.00     0.085 H 
ATOM     10  H3  <0> d           3.301   1.930  -0.019  0.00  0.00     0.111 H 
ATOM     11  H4  <0> d          -0.922  -0.562   0.008  0.00  0.00     0.092 H 
ENDROOT
BRANCH   4  12
ATOM     12  C6  <0> d           3.668  -0.681  -0.037  0.00  0.00     0.004 C 
ATOM     13  H5  <0> d           3.550  -1.633  -0.554  0.00  0.00     0.065 H 
ATOM     14  H6  <0> d           4.411  -0.075  -0.554  0.00  0.00     0.065 H 
BRANCH  12  15
ATOM     15  C7  <0> d           4.128  -0.936   1.400  0.00  0.00    -0.030 C 
ATOM     16  H7  <0> d           4.245   0.016   1.918  0.00  0.00     0.038 H 
ATOM     17  H8  <0> d           3.384  -1.542   1.918  0.00  0.00     0.038 H 
BRANCH  15  18
ATOM     18  C8  <0> d           5.467  -1.676   1.383  0.00  0.00     0.018 C 
ATOM     19  H9  <0> d           5.349  -2.628   0.866  0.00  0.00     0.074 H 
ATOM     20  H10 <0> d           6.210  -1.070   0.866  0.00  0.00     0.074 H 
BRANCH  18  21
ATOM     21  O2  <0> d           5.896  -1.913   2.725  0.00  0.00    -0.401 OA
ATOM     22  H11 <0> d           6.741  -2.380   2.791  0.00  0.00     0.209 HD
ENDBRANCH  18  21
ENDBRANCH  15  18
ENDBRANCH  12  15
ENDBRANCH   4  12
TORSDOF 4
