REMARK  0 active torsions:
REMARK  status: ('A' for Active; 'I' for Inactive)
ROOT
ATOM      1  C1  <0> d           1.177   1.782   0.000  0.00  0.00    -0.082 A 
ATOM      2  C2  <0> d           1.175   3.167   0.008  0.00  0.00    -0.082 A 
ATOM      3  C3  <0> d          -0.022   3.855   0.025  0.00  0.00    -0.069 A 
ATOM      4  C4  <0> d          -1.223   3.146   0.034  0.00  0.00     0.020 A 
ATOM      5  C5  <0> d          -1.218   1.748   0.017  0.00  0.00    -0.021 A 
ATOM      6  C6  <0> d          -0.013   1.076   0.008  0.00  0.00    -0.074 A 
ATOM      7  C7  <0> d          -2.510   0.978   0.019  0.00  0.00     0.045 C 
ATOM      8  O1  <0> d          -3.586   1.779   0.504  0.00  0.00    -0.379 OA
ATOM      9  C8  <0> d          -3.759   3.019  -0.194  0.00  0.00     0.079 C 
ATOM     10  C9  <0> d          -2.518   3.856   0.058  0.00  0.00     0.183 C 
ATOM     11  O2  <0> d          -2.587   5.048   0.268  0.00  0.00    -0.290 OA
ATOM     12  H1  <0> d           2.116   1.249  -0.011  0.00  0.00     0.083 H 
ATOM     13  H2  <0> d           2.109   3.708   0.001  0.00  0.00     0.083 H 
ATOM     14  H3  <0> d          -0.027   4.935   0.033  0.00  0.00     0.085 H 
ATOM     15  H4  <0> d           0.002  -0.004   0.002  0.00  0.00     0.084 H 
ATOM     16  H5  <0> d          -2.746   0.655  -1.005  0.00  0.00     0.081 H 
ATOM     17  H6  <0> d          -2.410   0.095   0.668  0.00  0.00     0.081 H 
ATOM     18  H7  <0> d          -3.879   2.821  -1.270  0.00  0.00     0.086 H 
ATOM     19  H8  <0> d          -4.654   3.533   0.186  0.00  0.00     0.086 H 
ENDROOT
TORSDOF 0
