REMARK  6 active torsions:
REMARK  status: ('A' for Active; 'I' for Inactive)
REMARK    1  A    between atoms: C1_1  and  C2_2 
REMARK    2  A    between atoms: C2_2  and  C3_3 
REMARK    3  A    between atoms: C3_3  and  C4_4 
REMARK    4  A    between atoms: C3_3  and  S1_6 
REMARK    5  A    between atoms: C4_4  and  C5_5 
REMARK    6  A    between atoms: S1_6  and  N1_9 
ROOT
ATOM      1  C3  <0> d           0.745  -0.384  -1.251  0.00  0.00     0.062 C 
ATOM      2  H6  <0> d           1.793  -0.091  -1.302  0.00  0.00     0.066 H 
ENDROOT
BRANCH   1   3
ATOM      3  C2  <0> d           0.109   0.216   0.005  0.00  0.00    -0.051 C 
ATOM      4  H4  <0> d          -0.917  -0.141   0.099  0.00  0.00     0.034 H 
ATOM      5  H5  <0> d           0.110   1.304  -0.071  0.00  0.00     0.034 H 
BRANCH   3   6
ATOM      6  C1  <0> d           0.912  -0.209   1.236  0.00  0.00    -0.075 C 
ATOM      7  H1  <0> d           0.818  -1.286   1.376  0.00  0.00     0.027 H 
ATOM      8  H2  <0> d           1.961   0.048   1.092  0.00  0.00     0.027 H 
ATOM      9  H3  <0> d           0.528   0.307   2.116  0.00  0.00     0.027 H 
ENDBRANCH   3   6
ENDBRANCH   1   3
BRANCH   1  10
ATOM     10  C4  <0> d           0.642  -1.909  -1.196  0.00  0.00    -0.051 C 
ATOM     11  H7  <0> d           1.087  -2.270  -0.269  0.00  0.00     0.034 H 
ATOM     12  H8  <0> d          -0.407  -2.204  -1.234  0.00  0.00     0.034 H 
BRANCH  10  13
ATOM     13  C5  <0> d           1.386  -2.514  -2.388  0.00  0.00    -0.075 C 
ATOM     14  H9  <0> d           0.941  -2.153  -3.315  0.00  0.00     0.027 H 
ATOM     15  H10 <0> d           2.434  -2.219  -2.350  0.00  0.00     0.027 H 
ATOM     16  H11 <0> d           1.313  -3.601  -2.349  0.00  0.00     0.027 H 
ENDBRANCH  10  13
ENDBRANCH   1  10
BRANCH   1  17
ATOM     17  S1  <0> d          -0.126   0.228  -2.720  0.00  0.00     0.228 S 
ATOM     18  O1  <0> d           0.626  -0.062  -3.891  0.00  0.00    -0.206 OA
ATOM     19  O2  <0> d          -1.506  -0.103  -2.645  0.00  0.00    -0.206 OA
BRANCH  17  20
ATOM     20  N1  <0> d          -0.079   1.878  -2.587  0.00  0.00    -0.328 N 
ATOM     21  H12 <0> d           0.306   2.290  -1.798  0.00  0.00     0.168 HD
ATOM     22  H13 <0> d          -0.436   2.433  -3.298  0.00  0.00     0.168 HD
ENDBRANCH  17  20
ENDBRANCH   1  17
TORSDOF 6
