REMARK  2 active torsions:
REMARK  status: ('A' for Active; 'I' for Inactive)
REMARK    1  A    between atoms: C1_1  and  C2_2 
REMARK    2  A    between atoms: C9_10  and  C10_12 
ROOT
ATOM      1  C2  <0> d           3.619   2.083  -0.022  0.00  0.00     0.045 A 
ATOM      2  C3  <0> d           2.418   1.350  -0.014  0.00  0.00     0.017 A 
ATOM      3  C4  <0> d           2.400  -0.053  -0.021  0.00  0.00    -0.069 A 
ATOM      4  C5  <0> d           1.205  -0.707  -0.013  0.00  0.00    -0.082 A 
ATOM      5  C6  <0> d           0.002  -0.004   0.002  0.00  0.00    -0.081 A 
ATOM      6  C7  <0> d          -0.016   1.358   0.009  0.00  0.00    -0.054 A 
ATOM      7  C8  <0> d           1.194   2.067   0.002  0.00  0.00     0.071 A 
ATOM      8  N1  <0> d           1.233   3.405   0.009  0.00  0.00    -0.233 NA
ATOM      9  C9  <0> d           2.385   4.032   0.000  0.00  0.00     0.123 A 
ATOM     10  N2  <0> d           3.548   3.399  -0.014  0.00  0.00    -0.238 NA
ATOM     11  H4  <0> d           3.325  -0.609  -0.033  0.00  0.00     0.085 H 
ATOM     12  H5  <0> d           1.190  -1.787  -0.019  0.00  0.00     0.083 H 
ATOM     13  H6  <0> d          -0.931  -0.548   0.008  0.00  0.00     0.083 H 
ATOM     14  H7  <0> d          -0.957   1.889   0.017  0.00  0.00     0.087 H 
ENDROOT
BRANCH   1  15
ATOM     15  C1  <0> d           4.952   1.380  -0.038  0.00  0.00    -0.035 C 
ATOM     16  H1  <0> d           5.263   1.216  -1.069  0.00  0.00     0.035 H 
ATOM     17  H2  <0> d           5.693   1.996   0.472  0.00  0.00     0.035 H 
ATOM     18  H3  <0> d           4.863   0.421   0.473  0.00  0.00     0.035 H 
ENDBRANCH   1  15
BRANCH   9  19
ATOM     19  C10 <0> d           2.385   5.539   0.008  0.00  0.00    -0.019 C 
ATOM     20  H8  <0> d           2.375   5.908  -1.018  0.00  0.00     0.037 H 
ATOM     21  H9  <0> d           1.500   5.900   0.532  0.00  0.00     0.037 H 
ATOM     22  H10 <0> d           3.280   5.900   0.515  0.00  0.00     0.037 H 
ENDBRANCH   9  19
TORSDOF 2
