REMARK  2 active torsions:
REMARK  status: ('A' for Active; 'I' for Inactive)
REMARK    1  A    between atoms: C1_1  and  C2_2 
REMARK    2  A    between atoms: C7_8  and  N2_11 
ROOT
ATOM      1  C2  <0> d           0.002  -0.004   0.002  0.00  0.00     0.143 A 
ATOM      2  N1  <0> d          -0.015   1.295   0.009  0.00  0.00    -0.226 NA
ATOM      3  C3  <0> d           1.266   1.751  -0.001  0.00  0.00     0.095 A 
ATOM      4  C4  <0> d           1.838   3.026   0.001  0.00  0.00    -0.052 A 
ATOM      5  C5  <0> d           3.208   3.163  -0.012  0.00  0.00    -0.078 A 
ATOM      6  C6  <0> d           4.027   2.045  -0.026  0.00  0.00    -0.055 A 
ATOM      7  C7  <0> d           3.476   0.773  -0.027  0.00  0.00     0.062 A 
ATOM      8  C8  <0> d           2.092   0.620  -0.015  0.00  0.00     0.132 A 
ATOM      9  O1  <0> d           1.267  -0.451  -0.013  0.00  0.00    -0.292 OA
ATOM     10  H4  <0> d           1.207   3.902   0.012  0.00  0.00     0.087 H 
ATOM     11  H5  <0> d           3.648   4.150  -0.011  0.00  0.00     0.083 H 
ATOM     12  H6  <0> d           5.100   2.165  -0.036  0.00  0.00     0.087 H 
ENDROOT
BRANCH   1  13
ATOM     13  C1  <0> d          -1.222  -0.882   0.008  0.00  0.00    -0.015 C 
ATOM     14  H1  <0> d          -2.125  -0.254   0.020  0.00  0.00     0.038 H 
ATOM     15  H2  <0> d          -1.210  -1.523   0.902  0.00  0.00     0.038 H 
ATOM     16  H3  <0> d          -1.226  -1.512  -0.894  0.00  0.00     0.038 H 
ENDBRANCH   1  13
BRANCH   7  17
ATOM     17  N2  <0> d           4.307  -0.351  -0.041  0.00  0.00    -0.397 N 
ATOM     18  H7  <0> d           3.868  -1.360  -0.042  0.00  0.00     0.156 HD
ATOM     19  H8  <0> d           5.400  -0.228  -0.051  0.00  0.00     0.156 HD
ENDBRANCH   7  17
TORSDOF 2
