REMARK  1 active torsions:
REMARK  status: ('A' for Active; 'I' for Inactive)
REMARK    1  A    between atoms: C2_2  and  N3_10 
ROOT
ATOM      1  C1  <0> d          -0.013   1.076   0.008  0.00  0.00     0.049 A 
ATOM      2  C2  <0> d           1.202   1.794   0.000  0.00  0.00     0.072 A 
ATOM      3  C3  <0> d           1.174   3.176   0.007  0.00  0.00     0.131 A 
ATOM      4  C4  <0> d          -0.066   3.831   0.022  0.00  0.00     0.285 A 
ATOM      5  O1  <0> d          -0.117   5.052   0.029  0.00  0.00    -0.265 OA
ATOM      6  N1  <0> d          -1.202   3.106   0.029  0.00  0.00    -0.242 N 
ATOM      7  H1  <0> d          -2.178   3.612   0.045  0.00  0.00     0.192 HD
ATOM      8  N2  <0> d          -1.153   1.708   0.017  0.00  0.00    -0.182 NA
ATOM      9 Cl1  <0> d           2.652   4.088  -0.002  0.00  0.00    -0.076 Cl
ATOM     10  H2  <0> d           0.002  -0.004   0.002  0.00  0.00     0.121 H 
ENDROOT
BRANCH   2  11
ATOM     11  N3  <0> d           2.412   1.120  -0.015  0.00  0.00    -0.396 N 
ATOM     12  H3  <0> d           3.356   1.684  -0.021  0.00  0.00     0.156 HD
ATOM     13  H4  <0> d           2.429   0.020  -0.021  0.00  0.00     0.156 HD
ENDBRANCH   2  11
TORSDOF 1
