REMARK  1 active torsions:
REMARK  status: ('A' for Active; 'I' for Inactive)
REMARK    1  A    between atoms: C2_2  and  O1_7 
ROOT
ATOM      1  C1  <0> d          -0.013   1.076   0.008  0.00  0.00     0.037 A 
ATOM      2  C2  <0> d           1.176   1.798   0.001  0.00  0.00     0.100 A 
ATOM      3  C3  <0> d           1.104   3.187   0.008  0.00  0.00     0.037 A 
ATOM      4  N1  <0> d          -0.084   3.768   0.022  0.00  0.00    -0.251 NA
ATOM      5  C4  <0> d          -1.188   3.049   0.029  0.00  0.00     0.086 A 
ATOM      6  N2  <0> d          -1.162   1.731   0.017  0.00  0.00    -0.251 NA
ATOM      7  H1  <0> d           0.002  -0.004   0.002  0.00  0.00     0.119 H 
ATOM      8  H2  <0> d           2.005   3.782   0.002  0.00  0.00     0.119 H 
ATOM      9  H3  <0> d          -2.143   3.554   0.040  0.00  0.00     0.146 H 
ENDROOT
BRANCH   2  10
ATOM     10  O1  <0> d           2.378   1.162  -0.013  0.00  0.00    -0.358 OA
ATOM     11  H4  <0> d           2.717   0.982  -0.901  0.00  0.00     0.217 HD
ENDBRANCH   2  10
TORSDOF 1
