REMARK  2 active torsions:
REMARK  status: ('A' for Active; 'I' for Inactive)
REMARK    1  A    between atoms: C2_2  and  O4_14 
REMARK    2  A    between atoms: C5_9  and  O3_13 
ROOT
ATOM      1  C1  <0> d           0.598  -0.527  -1.315  0.00  0.00     0.046 C 
ATOM      2  C2  <0> d           0.002  -0.004   0.002  0.00  0.00     0.083 C 
ATOM      3  H1  <0> d           0.566  -0.382   0.855  0.00  0.00     0.090 H 
ATOM      4  C3  <0> d          -1.434  -0.564   0.013  0.00  0.00     0.092 C 
ATOM      5  H2  <0> d          -2.143   0.106   0.500  0.00  0.00     0.091 H 
ATOM      6  C4  <0> d          -1.736  -0.794  -1.493  0.00  0.00     0.092 C 
ATOM      7  H3  <0> d          -2.321   0.016  -1.927  0.00  0.00     0.091 H 
ATOM      8  O1  <0> d          -0.475  -0.975  -2.143  0.00  0.00    -0.378 OA
ATOM      9  C5  <0> d          -2.498  -2.141  -1.509  0.00  0.00     0.083 C 
ATOM     10  H4  <0> d          -3.507  -2.006  -1.898  0.00  0.00     0.090 H 
ATOM     11  C6  <0> d          -2.543  -2.569  -0.026  0.00  0.00     0.046 C 
ATOM     12  O2  <0> d          -1.430  -1.884   0.591  0.00  0.00    -0.378 OA
ATOM     13  H5  <0> d           1.141   0.273  -1.817  0.00  0.00     0.078 H 
ATOM     14  H6  <0> d           1.274  -1.357  -1.109  0.00  0.00     0.078 H 
ATOM     15  H7  <0> d          -2.419  -3.648   0.061  0.00  0.00     0.078 H 
ATOM     16  H8  <0> d          -3.481  -2.256   0.431  0.00  0.00     0.078 H 
ENDROOT
BRANCH   2  17
ATOM     17  O4  <0> d          -0.017   1.425   0.010  0.00  0.00    -0.391 OA
ATOM     18  H10 <0> d           0.861   1.830   0.004  0.00  0.00     0.210 HD
ENDBRANCH   2  17
BRANCH   9  19
ATOM     19  O3  <0> d          -1.788  -3.107  -2.287  0.00  0.00    -0.391 OA
ATOM     20  H9  <0> d          -2.191  -3.986  -2.285  0.00  0.00     0.210 HD
ENDBRANCH   9  19
TORSDOF 2
