REMARK  4 active torsions:
REMARK  status: ('A' for Active; 'I' for Inactive)
REMARK    1  A    between atoms: C1_1  and  C2_2 
REMARK    2  A    between atoms: C2_2  and  C3_4 
REMARK    3  A    between atoms: C6_7  and  O2_11 
REMARK    4  A    between atoms: C7_8  and  N1_10 
ROOT
ATOM      1  C3  <0> d          -1.260  -0.756   0.010  0.00  0.00     0.012 A 
ATOM      2  C4  <0> d          -2.483  -0.074   0.020  0.00  0.00    -0.067 A 
ATOM      3  C5  <0> d          -3.665  -0.780   0.027  0.00  0.00    -0.048 A 
ATOM      4  C6  <0> d          -3.649  -2.169   0.025  0.00  0.00     0.091 A 
ATOM      5  C7  <0> d          -2.434  -2.857   0.016  0.00  0.00     0.060 A 
ATOM      6  C8  <0> d          -1.243  -2.156   0.002  0.00  0.00    -0.042 A 
ATOM      7  H4  <0> d          -2.499   1.006   0.021  0.00  0.00     0.085 H 
ATOM      8  H5  <0> d          -4.607  -0.253   0.035  0.00  0.00     0.087 H 
ATOM      9  H6  <0> d          -0.302  -2.686  -0.009  0.00  0.00     0.088 H 
ENDROOT
BRANCH   1  10
ATOM     10  C2  <0> d           0.002  -0.004   0.002  0.00  0.00     0.155 C 
ATOM     11  O1  <0> d           1.061  -0.596  -0.011  0.00  0.00    -0.293 OA
BRANCH  10  12
ATOM     12  C1  <0> d          -0.018   1.503   0.010  0.00  0.00    -0.017 C 
ATOM     13  H1  <0> d           1.004   1.880   0.003  0.00  0.00     0.038 H 
ATOM     14  H2  <0> d          -0.545   1.864  -0.873  0.00  0.00     0.038 H 
ATOM     15  H3  <0> d          -0.529   1.854   0.907  0.00  0.00     0.038 H 
ENDBRANCH  10  12
ENDBRANCH   1  10
BRANCH   5  16
ATOM     16  N1  <0> d          -2.422  -4.257   0.014  0.00  0.00    -0.397 N 
ATOM     17  H7  <0> d          -3.258  -4.749   0.019  0.00  0.00     0.156 HD
ATOM     18  H8  <0> d          -1.578  -4.735   0.007  0.00  0.00     0.156 HD
ENDBRANCH   5  16
BRANCH   4  19
ATOM     19  O2  <0> d          -4.818  -2.859   0.033  0.00  0.00    -0.358 OA
ATOM     20  H9  <0> d          -5.163  -3.058  -0.848  0.00  0.00     0.217 HD
ENDBRANCH   4  19
TORSDOF 4
