REMARK  0 active torsions:
REMARK  status: ('A' for Active; 'I' for Inactive)
ROOT
ATOM      1  C1  <0> d           1.160   2.038   0.002  0.00  0.00    -0.029 A 
ATOM      2  C2  <0> d          -0.016   1.315   0.009  0.00  0.00     0.007 A 
ATOM      3  N1  <0> d           0.002  -0.004   0.002  0.00  0.00    -0.249 NA
ATOM      4  C3  <0> d           1.134  -0.684  -0.012  0.00  0.00     0.128 A 
ATOM      5  C4  <0> d           2.352  -0.030  -0.021  0.00  0.00    -0.007 A 
ATOM      6  C5  <0> d           2.373   1.359  -0.013  0.00  0.00     0.120 A 
ATOM      7  F1  <0> d           3.543   2.033  -0.020  0.00  0.00    -0.206 F 
ATOM      8 Cl1  <0> d           1.092  -2.419  -0.021  0.00  0.00    -0.062 Cl
ATOM      9  H1  <0> d           1.138   3.118   0.008  0.00  0.00     0.090 H 
ATOM     10  H2  <0> d          -0.962   1.836   0.017  0.00  0.00     0.114 H 
ATOM     11  H3  <0> d           3.274  -0.591  -0.033  0.00  0.00     0.093 H 
ENDROOT
TORSDOF 0
