REMARK  6 active torsions:
REMARK  status: ('A' for Active; 'I' for Inactive)
REMARK    1  A    between atoms: C1_1  and  C2_2 
REMARK    2  A    between atoms: C2_2  and  C3_3 
REMARK    3  A    between atoms: C3_3  and  C4_4 
REMARK    4  A    between atoms: C4_4  and  C5_6 
REMARK    5  A    between atoms: C4_4  and  S1_7 
REMARK    6  A    between atoms: S1_7  and  N1_10 
ROOT
ATOM      1  C4  <0> d           0.739  -2.027  -1.265  0.00  0.00     0.059 C 
ATOM      2  H1  <0> d          -0.279  -2.405  -1.168  0.00  0.00     0.066 H 
ENDROOT
BRANCH   1   3
ATOM      3  C3  <0> d           0.718  -0.497  -1.257  0.00  0.00    -0.048 C 
ATOM      4  H7  <0> d           0.191  -0.136  -2.140  0.00  0.00     0.035 H 
ATOM      5  H8  <0> d           1.741  -0.120  -1.264  0.00  0.00     0.035 H 
BRANCH   3   6
ATOM      6  C2  <0> d           0.002  -0.004   0.002  0.00  0.00    -0.067 C 
ATOM      7  H5  <0> d           0.529  -0.365   0.885  0.00  0.00     0.032 H 
ATOM      8  H6  <0> d          -1.020  -0.381   0.010  0.00  0.00     0.032 H 
BRANCH   6   9
ATOM      9  C1  <0> d          -0.019   1.526   0.010  0.00  0.00    -0.076 C 
ATOM     10  H2  <0> d           1.004   1.903   0.003  0.00  0.00     0.027 H 
ATOM     11  H3  <0> d          -0.546   1.887  -0.873  0.00  0.00     0.027 H 
ATOM     12  H4  <0> d          -0.529   1.877   0.907  0.00  0.00     0.027 H 
ENDBRANCH   6   9
ENDBRANCH   3   6
ENDBRANCH   1   3
BRANCH   1  13
ATOM     13  C5  <0> d           1.343  -2.522  -2.581  0.00  0.00    -0.058 C 
ATOM     14  H9  <0> d           1.358  -3.612  -2.587  0.00  0.00     0.029 H 
ATOM     15  H10 <0> d           0.741  -2.162  -3.415  0.00  0.00     0.029 H 
ATOM     16  H11 <0> d           2.361  -2.144  -2.678  0.00  0.00     0.029 H 
ENDBRANCH   1  13
BRANCH   1  17
ATOM     17  S1  <0> d           1.741  -2.626   0.123  0.00  0.00     0.228 S 
ATOM     18  O1  <0> d           3.087  -2.194  -0.023  0.00  0.00    -0.206 OA
ATOM     19  O2  <0> d           1.047  -2.432   1.348  0.00  0.00    -0.206 OA
BRANCH  17  20
ATOM     20  N1  <0> d           1.802  -4.269  -0.073  0.00  0.00    -0.328 N 
ATOM     21  H12 <0> d           1.347  -4.685  -0.822  0.00  0.00     0.168 HD
ATOM     22  H13 <0> d           2.291  -4.816   0.561  0.00  0.00     0.168 HD
ENDBRANCH  17  20
ENDBRANCH   1  17
TORSDOF 6
