REMARK  3 active torsions:
REMARK  status: ('A' for Active; 'I' for Inactive)
REMARK    1  A    between atoms: C1_1  and  C2_2 
REMARK    2  A    between atoms: C4_7  and  S1_10 
REMARK    3  A    between atoms: S1_10  and  C5_11 
ROOT
ATOM      1  C2  <0> d          -0.742   1.585  -1.213  0.00  0.00     0.120 A 
ATOM      2  C3  <0> d          -0.899   3.022  -1.451  0.00  0.00     0.295 A 
ATOM      3  O1  <0> d          -0.439   3.831  -0.659  0.00  0.00    -0.264 OA
ATOM      4  N1  <0> d          -1.550   3.441  -2.542  0.00  0.00    -0.182 NA
ATOM      5  H1  <0> d          -2.291   0.614  -3.848  0.00  0.00     0.191 HD
ATOM      6  C4  <0> d          -2.049   2.572  -3.400  0.00  0.00     0.185 A 
ATOM      7  N2  <0> d          -1.916   1.235  -3.203  0.00  0.00    -0.255 N 
ATOM      8  N3  <0> d          -1.239   0.744  -2.079  0.00  0.00    -0.172 NA
ENDROOT
BRANCH   6   9
ATOM      9  S1  <0> d          -2.901   3.157  -4.827  0.00  0.00    -0.095 SA
BRANCH   9  10
ATOM     10  C5  <0> d          -2.830   4.963  -4.671  0.00  0.00    -0.027 C 
ATOM     11  H5  <0> d          -3.320   5.267  -3.747  0.00  0.00     0.042 H 
ATOM     12  H6  <0> d          -1.789   5.285  -4.654  0.00  0.00     0.042 H 
ATOM     13  H7  <0> d          -3.339   5.421  -5.520  0.00  0.00     0.042 H 
ENDBRANCH   9  10
ENDBRANCH   6   9
BRANCH   1  14
ATOM     14  C1  <0> d          -0.013   1.086   0.008  0.00  0.00    -0.029 C 
ATOM     15  H2  <0> d           0.002  -0.004   0.002  0.00  0.00     0.036 H 
ATOM     16  H3  <0> d           1.010   1.463   0.000  0.00  0.00     0.036 H 
ATOM     17  H4  <0> d          -0.523   1.437   0.905  0.00  0.00     0.036 H 
ENDBRANCH   1  14
TORSDOF 3
