REMARK  4 active torsions:
REMARK  status: ('A' for Active; 'I' for Inactive)
REMARK    1  A    between atoms: C2_2  and  C4_6 
REMARK    2  A    between atoms: C4_6  and  C5_7 
REMARK    3  A    between atoms: C5_7  and  C6_8 
REMARK    4  A    between atoms: C6_8  and  O2_9 
ROOT
ATOM      1  C4  <0> d          -1.433  -0.534   0.013  0.00  0.00    -0.036 C 
ATOM      2  H3  <0> d          -1.944  -0.182   0.910  0.00  0.00     0.040 H 
ATOM      3  H4  <0> d          -1.960  -0.173  -0.870  0.00  0.00     0.040 H 
ENDROOT
BRANCH   1   4
ATOM      4  C2  <0> d          -1.413  -2.041   0.005  0.00  0.00    -0.014 A 
ATOM      5  C1  <0> d          -1.390  -2.917   1.114  0.00  0.00     0.037 A 
ATOM      6  N1  <0> d          -1.379  -4.125   0.628  0.00  0.00    -0.141 NA
ATOM      7  H1  <0> d          -1.383  -2.640   2.158  0.00  0.00     0.119 H 
ATOM      8  O1  <0> d          -1.391  -4.118  -0.582  0.00  0.00    -0.226 OA
ATOM      9  C3  <0> d          -1.418  -2.869  -1.067  0.00  0.00     0.051 A 
ATOM     10  H2  <0> d          -1.437  -2.580  -2.108  0.00  0.00     0.127 H 
ENDBRANCH   1   4
BRANCH   1  11
ATOM     11  C5  <0> d           0.002  -0.004   0.002  0.00  0.00    -0.042 C 
ATOM     12  H5  <0> d           0.512  -0.356  -0.895  0.00  0.00     0.036 H 
ATOM     13  H6  <0> d           0.529  -0.365   0.885  0.00  0.00     0.036 H 
BRANCH  11  14
ATOM     14  C6  <0> d          -0.019   1.526   0.010  0.00  0.00     0.017 C 
ATOM     15  H7  <0> d          -0.546   1.887  -0.873  0.00  0.00     0.073 H 
ATOM     16  H8  <0> d          -0.529   1.877   0.907  0.00  0.00     0.073 H 
BRANCH  14  17
ATOM     17  O2  <0> d           1.322   2.020   0.000  0.00  0.00    -0.401 OA
ATOM     18  H9  <0> d           1.385   2.985   0.005  0.00  0.00     0.209 HD
ENDBRANCH  14  17
ENDBRANCH  11  14
ENDBRANCH   1  11
TORSDOF 4
