REMARK  4 active torsions:
REMARK  status: ('A' for Active; 'I' for Inactive)
REMARK    1  A    between atoms: C1_1  and  C2_2 
REMARK    2  A    between atoms: C2_2  and  C3_3 
REMARK    3  A    between atoms: C4_4  and  C5_5 
REMARK    4  A    between atoms: C9_9  and  O1_11 
ROOT
ATOM      1  C5  <0> d          -3.201  -1.879  -0.918  0.00  0.00    -0.034 A 
ATOM      2  C6  <0> d          -4.090  -1.473   0.079  0.00  0.00    -0.073 A 
ATOM      3  C7  <0> d          -5.384  -1.952   0.085  0.00  0.00    -0.080 A 
ATOM      4  C8  <0> d          -5.804  -2.835  -0.892  0.00  0.00    -0.051 A 
ATOM      5  C9  <0> d          -4.927  -3.245  -1.887  0.00  0.00     0.066 A 
ATOM      6  C10 <0> d          -3.628  -2.765  -1.907  0.00  0.00    -0.041 A 
ATOM      7  H8  <0> d          -3.765  -0.784   0.844  0.00  0.00     0.084 H 
ATOM      8  H9  <0> d          -6.071  -1.638   0.857  0.00  0.00     0.083 H 
ATOM      9  H10 <0> d          -6.818  -3.208  -0.882  0.00  0.00     0.087 H 
ATOM     10  H11 <0> d          -2.946  -3.080  -2.683  0.00  0.00     0.089 H 
ENDROOT
BRANCH   1  11
ATOM     11  C4  <0> d          -1.815  -1.368  -0.928  0.00  0.00    -0.077 C 
ATOM     12  C3  <0> d          -1.412  -0.526   0.013  0.00  0.00    -0.102 C 
ATOM     13  H6  <0> d          -2.097  -0.213   0.787  0.00  0.00     0.076 H 
ATOM     14  H7  <0> d          -1.130  -1.680  -1.703  0.00  0.00     0.084 H 
BRANCH  12  15
ATOM     15  C2  <0> d           0.002  -0.004   0.002  0.00  0.00    -0.053 C 
ATOM     16  H4  <0> d           0.512  -0.356  -0.895  0.00  0.00     0.038 H 
ATOM     17  H5  <0> d           0.529  -0.365   0.885  0.00  0.00     0.038 H 
BRANCH  15  18
ATOM     18  C1  <0> d          -0.019   1.526   0.010  0.00  0.00    -0.073 C 
ATOM     19  H1  <0> d           1.004   1.903   0.003  0.00  0.00     0.027 H 
ATOM     20  H2  <0> d          -0.546   1.887  -0.873  0.00  0.00     0.027 H 
ATOM     21  H3  <0> d          -0.529   1.877   0.907  0.00  0.00     0.027 H 
ENDBRANCH  15  18
ENDBRANCH  12  15
ENDBRANCH   1  11
BRANCH   5  22
ATOM     22  O1  <0> d          -5.345  -4.114  -2.846  0.00  0.00    -0.361 OA
ATOM     23  H12 <0> d          -5.720  -3.686  -3.627  0.00  0.00     0.217 HD
ENDBRANCH   5  22
TORSDOF 4
