REMARK  2 active torsions:
REMARK  status: ('A' for Active; 'I' for Inactive)
REMARK    1  A    between atoms: C1_1  and  C2_2 
REMARK    2  A    between atoms: C2_2  and  C5_7 
ROOT
ATOM      1  C5  <0> d          -3.106   1.047  -1.429  0.00  0.00     0.066 C 
ATOM      2  C6  <0> d          -2.809  -0.385  -1.257  0.00  0.00     0.064 C 
ATOM      3  N1  <0> d          -2.580  -1.489  -1.124  0.00  0.00    -0.197 NA
ATOM      4  H8  <0> d          -4.110   1.256  -1.061  0.00  0.00     0.063 H 
ATOM      5  H9  <0> d          -3.045   1.306  -2.486  0.00  0.00     0.063 H 
ENDROOT
BRANCH   1   6
ATOM      6  C2  <0> d          -2.090   1.877  -0.641  0.00  0.00     0.172 C 
ATOM      7  O2  <0> d          -2.168   1.538   0.753  0.00  0.00    -0.352 OA
ATOM      8  C4  <0> d          -0.799   1.616   1.233  0.00  0.00     0.043 C 
ATOM      9  C3  <0> d          -0.013   1.086   0.008  0.00  0.00     0.043 C 
ATOM     10  H6  <0> d          -0.649   0.974   2.101  0.00  0.00     0.077 H 
ATOM     11  H7  <0> d          -0.522   2.646   1.459  0.00  0.00     0.077 H 
ATOM     12  O1  <0> d          -0.766   1.591  -1.112  0.00  0.00    -0.352 OA
ATOM     13  H4  <0> d           0.002  -0.004   0.002  0.00  0.00     0.077 H 
ATOM     14  H5  <0> d           1.002   1.484   0.001  0.00  0.00     0.077 H 
BRANCH   6  15
ATOM     15  C1  <0> d          -2.391   3.366  -0.824  0.00  0.00    -0.024 C 
ATOM     16  H1  <0> d          -2.332   3.621  -1.882  0.00  0.00     0.035 H 
ATOM     17  H2  <0> d          -3.393   3.582  -0.454  0.00  0.00     0.035 H 
ATOM     18  H3  <0> d          -1.663   3.954  -0.266  0.00  0.00     0.035 H 
ENDBRANCH   6  15
ENDBRANCH   1   6
TORSDOF 2
