REMARK  0 active torsions:
REMARK  status: ('A' for Active; 'I' for Inactive)
ROOT
ATOM      1  C1  <0> d          -0.017   1.372   0.010  0.00  0.00    -0.057 A 
ATOM      2  C2  <0> d           1.188   2.058   0.002  0.00  0.00     0.002 A 
ATOM      3  N1  <0> d           2.338   1.411  -0.013  0.00  0.00    -0.272 NA
ATOM      4  C3  <0> d           2.402   0.095  -0.020  0.00  0.00     0.018 A 
ATOM      5  C4  <0> d           1.235  -0.667  -0.013  0.00  0.00     0.057 A 
ATOM      6  C5  <0> d           0.002  -0.004   0.002  0.00  0.00    -0.022 A 
ATOM      7  C6  <0> d          -1.058  -1.072   0.006  0.00  0.00     0.020 A 
ATOM      8  N2  <0> d          -0.347  -2.357  -0.007  0.00  0.00    -0.353 N 
ATOM      9  C7  <0> d           0.977  -2.118  -0.019  0.00  0.00     0.253 A 
ATOM     10  O1  <0> d           1.837  -2.977  -0.032  0.00  0.00    -0.268 OA
ATOM     11  H1  <0> d          -0.954   1.909   0.026  0.00  0.00     0.086 H 
ATOM     12  H2  <0> d           1.185   3.138   0.007  0.00  0.00     0.114 H 
ATOM     13  H3  <0> d           3.364  -0.396  -0.033  0.00  0.00     0.116 H 
ATOM     14  H4  <0> d          -1.668  -0.991   0.906  0.00  0.00     0.071 H 
ATOM     15  H5  <0> d          -1.685  -0.982  -0.881  0.00  0.00     0.071 H 
ATOM     16  H6  <0> d          -0.763  -3.233  -0.008  0.00  0.00     0.163 HD
ENDROOT
TORSDOF 0
