REMARK  3 active torsions:
REMARK  status: ('A' for Active; 'I' for Inactive)
REMARK    1  A    between atoms: C3_3  and  O1_8 
REMARK    2  A    between atoms: C6_6  and  N1_7 
REMARK    3  A    between atoms: O1_8  and  C7_9 
ROOT
ATOM      1  C1  <0> d          -0.017   1.377   0.010  0.00  0.00    -0.055 A 
ATOM      2  C2  <0> d           0.002  -0.004   0.002  0.00  0.00    -0.048 A 
ATOM      3  C3  <0> d           1.212  -0.682  -0.013  0.00  0.00     0.075 A 
ATOM      4  C4  <0> d           2.405   0.027  -0.020  0.00  0.00    -0.048 A 
ATOM      5  C5  <0> d           2.388   1.408  -0.013  0.00  0.00    -0.055 A 
ATOM      6  C6  <0> d           1.177   2.087   0.002  0.00  0.00     0.025 A 
ATOM      7  H1  <0> d          -0.959   1.904   0.017  0.00  0.00     0.087 H 
ATOM      8  H2  <0> d          -0.926  -0.557   0.008  0.00  0.00     0.087 H 
ATOM      9  H3  <0> d           3.346  -0.501  -0.031  0.00  0.00     0.087 H 
ATOM     10  H4  <0> d           3.316   1.960  -0.018  0.00  0.00     0.087 H 
ENDROOT
BRANCH   3  11
ATOM     11  O1  <0> d           1.230  -2.041  -0.021  0.00  0.00    -0.290 OA
BRANCH  11  12
ATOM     12  C7  <0> d           2.511  -2.674  -0.036  0.00  0.00     0.310 C 
ATOM     13  F1  <0> d           3.210  -2.282  -1.183  0.00  0.00    -0.184 F 
ATOM     14  F2  <0> d           3.232  -2.295   1.101  0.00  0.00    -0.184 F 
ATOM     15  H7  <0> d           2.382  -3.756  -0.041  0.00  0.00     0.195 H 
ENDBRANCH  11  12
ENDBRANCH   3  11
BRANCH   6  16
ATOM     16  N1  <0> d           1.159   3.486   0.009  0.00  0.00    -0.399 N 
ATOM     17  H5  <0> d           0.312   3.960   0.020  0.00  0.00     0.156 HD
ATOM     18  H6  <0> d           1.992   3.982   0.004  0.00  0.00     0.156 HD
ENDBRANCH   6  16
TORSDOF 3
