REMARK  2 active torsions:
REMARK  status: ('A' for Active; 'I' for Inactive)
REMARK    1  A    between atoms: C3_3  and  C7_9 
REMARK    2  A    between atoms: C4_4  and  O1_8 
ROOT
ATOM      1  C1  <0> d           0.002  -0.004   0.002  0.00  0.00    -0.079 A 
ATOM      2  C2  <0> d          -0.017   1.374   0.010  0.00  0.00    -0.064 A 
ATOM      3  C3  <0> d           1.185   2.088   0.002  0.00  0.00     0.076 A 
ATOM      4  C4  <0> d           2.403   1.394  -0.014  0.00  0.00     0.121 A 
ATOM      5  C5  <0> d           2.404   0.006  -0.021  0.00  0.00     0.150 A 
ATOM      6  C6  <0> d           1.207  -0.687  -0.013  0.00  0.00    -0.043 A 
ATOM      7  F1  <0> d           3.574  -0.669  -0.036  0.00  0.00    -0.203 F 
ATOM      8  H1  <0> d          -0.927  -0.554   0.008  0.00  0.00     0.083 H 
ATOM      9  H2  <0> d          -0.959   1.901   0.017  0.00  0.00     0.085 H 
ATOM     10  H3  <0> d           1.212  -1.767  -0.019  0.00  0.00     0.088 H 
ENDROOT
BRANCH   3  11
ATOM     11  C7  <0> d           1.171   3.562   0.009  0.00  0.00     0.212 C 
ATOM     12  O2  <0> d           2.218   4.179   0.003  0.00  0.00    -0.644 OA
ATOM     13  O3  <0> d          -0.002   4.224   0.024  0.00  0.00    -0.644 OA
ENDBRANCH   3  11
BRANCH   4  14
ATOM     14  O1  <0> d           3.576   2.077  -0.021  0.00  0.00    -0.357 OA
ATOM     15  H4  <0> d           3.908   2.279  -0.907  0.00  0.00     0.218 HD
ENDBRANCH   4  14
TORSDOF 2
