REMARK  3 active torsions:
REMARK  status: ('A' for Active; 'I' for Inactive)
REMARK    1  A    between atoms: C1_1  and  O1_2 
REMARK    2  A    between atoms: O1_2  and  C2_3 
REMARK    3  A    between atoms: C5_6  and  O2_9 
ROOT
ATOM      1  C2  <0> d           0.606  -0.608  -1.056  0.00  0.00     0.068 A 
ATOM      2  C3  <0> d           1.173   0.161  -2.062  0.00  0.00    -0.048 A 
ATOM      3  C4  <0> d           1.786  -0.452  -3.137  0.00  0.00    -0.048 A 
ATOM      4  C5  <0> d           1.836  -1.836  -3.211  0.00  0.00     0.065 A 
ATOM      5  C6  <0> d           1.270  -2.604  -2.204  0.00  0.00    -0.048 A 
ATOM      6  C7  <0> d           0.661  -1.992  -1.127  0.00  0.00    -0.048 A 
ATOM      7  H4  <0> d           1.134   1.239  -2.005  0.00  0.00     0.087 H 
ATOM      8  H5  <0> d           2.227   0.147  -3.921  0.00  0.00     0.087 H 
ATOM      9  H6  <0> d           1.309  -3.682  -2.262  0.00  0.00     0.087 H 
ATOM     10  H7  <0> d           0.223  -2.590  -0.342  0.00  0.00     0.087 H 
ENDROOT
BRANCH   1  11
ATOM     11  O1  <0> d           0.002  -0.004   0.002  0.00  0.00    -0.356 OA
BRANCH  11  12
ATOM     12  C1  <0> d          -0.017   1.425   0.010  0.00  0.00     0.010 C 
ATOM     13  H1  <0> d           1.005   1.802   0.002  0.00  0.00     0.066 H 
ATOM     14  H2  <0> d          -0.544   1.786  -0.873  0.00  0.00     0.066 H 
ATOM     15  H3  <0> d          -0.527   1.776   0.907  0.00  0.00     0.066 H 
ENDBRANCH  11  12
ENDBRANCH   1  11
BRANCH   4  16
ATOM     16  O2  <0> d           2.440  -2.439  -4.269  0.00  0.00    -0.361 OA
ATOM     17  H8  <0> d           3.383  -2.609  -4.140  0.00  0.00     0.217 HD
ENDBRANCH   4  16
TORSDOF 3
