REMARK  1 active torsions:
REMARK  status: ('A' for Active; 'I' for Inactive)
REMARK    1  A    between atoms: C1_1  and  N1_2 
ROOT
ATOM      1  N1  <0> d           0.002  -0.004   0.002  0.00  0.00    -0.284 N 
ATOM      2  C2  <0> d           0.008  -0.792  -1.094  0.00  0.00     0.020 A 
ATOM      3  C3  <0> d           0.028  -2.080  -0.676  0.00  0.00     0.070 A 
ATOM      4  C4  <0> d           0.034  -2.078   0.723  0.00  0.00     0.044 A 
ATOM      5  N2  <0> d           0.025  -0.834   1.130  0.00  0.00    -0.184 NA
ATOM      6 Cl1  <0> d           0.042  -3.485  -1.696  0.00  0.00    -0.081 Cl
ATOM      7  H4  <0> d          -0.002  -0.456  -2.121  0.00  0.00     0.116 H 
ATOM      8  H5  <0> d           0.049  -2.952   1.358  0.00  0.00     0.120 H 
ENDROOT
BRANCH   1   9
ATOM      9  C1  <0> d          -0.018   1.461   0.010  0.00  0.00     0.002 C 
ATOM     10  H1  <0> d           1.005   1.838   0.002  0.00  0.00     0.059 H 
ATOM     11  H2  <0> d          -0.545   1.822  -0.873  0.00  0.00     0.059 H 
ATOM     12  H3  <0> d          -0.528   1.812   0.907  0.00  0.00     0.059 H 
ENDBRANCH   1   9
TORSDOF 1
