REMARK  0 active torsions:
REMARK  status: ('A' for Active; 'I' for Inactive)
ROOT
ATOM      1  C1  <0> d          -0.017   1.377   0.010  0.00  0.00    -0.082 A 
ATOM      2  C2  <0> d           1.172   2.083   0.002  0.00  0.00    -0.082 A 
ATOM      3  C3  <0> d           2.376   1.406  -0.013  0.00  0.00    -0.076 A 
ATOM      4  C4  <0> d           2.396   0.021  -0.021  0.00  0.00    -0.051 A 
ATOM      5  C5  <0> d           1.208  -0.685  -0.013  0.00  0.00    -0.051 A 
ATOM      6  C6  <0> d           0.002  -0.004   0.002  0.00  0.00    -0.076 A 
ATOM      7  C7  <0> d           1.496  -2.171  -0.024  0.00  0.00    -0.025 C 
ATOM      8  C8  <0> d           2.966  -2.294  -0.479  0.00  0.00     0.038 C 
ATOM      9  C9  <0> d           3.564  -0.942  -0.037  0.00  0.00    -0.025 C 
ATOM     10  C10 <0> d           3.634  -3.412   0.208  0.00  0.00     0.064 C 
ATOM     11  N1  <0> d           4.149  -4.274   0.739  0.00  0.00    -0.197 NA
ATOM     12  H1  <0> d          -0.959   1.905   0.026  0.00  0.00     0.083 H 
ATOM     13  H2  <0> d           1.159   3.163   0.008  0.00  0.00     0.083 H 
ATOM     14  H3  <0> d           3.304   1.958  -0.019  0.00  0.00     0.084 H 
ATOM     15  H4  <0> d          -0.927  -0.555   0.008  0.00  0.00     0.084 H 
ATOM     16  H5  <0> d           1.373  -2.587   0.976  0.00  0.00     0.042 H 
ATOM     17  H6  <0> d           0.838  -2.678  -0.729  0.00  0.00     0.042 H 
ATOM     18  H7  <0> d           3.028  -2.411  -1.561  0.00  0.00     0.063 H 
ATOM     19  H8  <0> d           4.318  -0.611  -0.751  0.00  0.00     0.042 H 
ATOM     20  H9  <0> d           3.997  -1.028   0.960  0.00  0.00     0.042 H 
ENDROOT
TORSDOF 0
