REMARK  0 active torsions:
REMARK  status: ('A' for Active; 'I' for Inactive)
ROOT
ATOM      1  C1  <0> d          -1.199   1.628   0.017  0.00  0.00     0.020 A 
ATOM      2  C2  <0> d          -1.199   2.990   0.030  0.00  0.00     0.149 A 
ATOM      3  C3  <0> d           0.025   3.669   0.021  0.00  0.00     0.046 A 
ATOM      4  N1  <0> d           1.153   2.988   0.007  0.00  0.00    -0.203 NA
ATOM      5  C4  <0> d           1.146   1.653  -0.000  0.00  0.00     0.345 A 
ATOM      6  O1  <0> d           2.205   1.048  -0.014  0.00  0.00    -0.245 OA
ATOM      7  N2  <0> d          -0.011   0.966   0.007  0.00  0.00    -0.314 N 
ATOM      8  H1  <0> d           0.005  -0.134   0.006  0.00  0.00     0.170 HD
ATOM      9  F1  <0> d          -2.363   3.675   0.045  0.00  0.00    -0.203 F 
ATOM     10  H2  <0> d          -2.130   1.081   0.018  0.00  0.00     0.116 H 
ATOM     11  H3  <0> d           0.045   4.749   0.028  0.00  0.00     0.119 H 
ENDROOT
TORSDOF 0
