REMARK  5 active torsions:
REMARK  status: ('A' for Active; 'I' for Inactive)
REMARK    1  A    between atoms: C1_1  and  C2_2 
REMARK    2  A    between atoms: C2_2  and  O1_3 
REMARK    3  A    between atoms: O1_3  and  C3_4 
REMARK    4  A    between atoms: C3_4  and  C4_6 
REMARK    5  A    between atoms: C5_7  and  C7_12 
ROOT
ATOM      1  C4  <0> d           1.500  -2.373   2.473  0.00  0.00     0.155 A 
ATOM      2  C5  <0> d           1.688  -3.698   2.743  0.00  0.00     0.041 A 
ATOM      3  N1  <0> d           2.374  -3.768   3.907  0.00  0.00    -0.352 N 
ATOM      4  H1  <0> d           2.656  -4.580   4.356  0.00  0.00     0.166 HD
ATOM      5  C6  <0> d           2.597  -2.497   4.333  0.00  0.00     0.065 A 
ATOM      6  N2  <0> d           2.080  -1.665   3.476  0.00  0.00    -0.236 NA
ATOM      7  H7  <0> d           3.122  -2.222   5.236  0.00  0.00     0.143 H 
ENDROOT
BRANCH   1   8
ATOM      8  C3  <0> d           0.801  -1.813   1.304  0.00  0.00     0.314 C 
ATOM      9  O2  <0> d           0.321  -2.556   0.470  0.00  0.00    -0.257 OA
BRANCH   8  10
ATOM     10  O1  <0> d           0.693  -0.477   1.160  0.00  0.00    -0.317 OA
BRANCH  10  11
ATOM     11  C2  <0> d           0.002  -0.004   0.002  0.00  0.00     0.026 C 
ATOM     12  H5  <0> d          -1.020  -0.381   0.010  0.00  0.00     0.074 H 
ATOM     13  H6  <0> d           0.512  -0.356  -0.895  0.00  0.00     0.074 H 
BRANCH  11  14
ATOM     14  C1  <0> d          -0.019   1.526   0.010  0.00  0.00    -0.056 C 
ATOM     15  H2  <0> d           1.004   1.903   0.003  0.00  0.00     0.030 H 
ATOM     16  H3  <0> d          -0.546   1.887  -0.873  0.00  0.00     0.030 H 
ATOM     17  H4  <0> d          -0.529   1.877   0.907  0.00  0.00     0.030 H 
ENDBRANCH  11  14
ENDBRANCH  10  11
ENDBRANCH   8  10
ENDBRANCH   1   8
BRANCH   2  18
ATOM     18  C7  <0> d           1.220  -4.860   1.904  0.00  0.00    -0.035 C 
ATOM     19  H8  <0> d           1.994  -5.120   1.181  0.00  0.00     0.035 H 
ATOM     20  H9  <0> d           1.022  -5.716   2.549  0.00  0.00     0.035 H 
ATOM     21  H10 <0> d           0.308  -4.583   1.377  0.00  0.00     0.035 H 
ENDBRANCH   2  18
TORSDOF 5
