REMARK  4 active torsions:
REMARK  status: ('A' for Active; 'I' for Inactive)
REMARK    1  A    between atoms: C1_1  and  C2_2 
REMARK    2  A    between atoms: C2_2  and  C4_4 
REMARK    3  A    between atoms: C7_8  and  C10_11 
REMARK    4  A    between atoms: C10_11  and  O1_12 
ROOT
ATOM      1  C4  <0> d          -0.000  -0.750  -1.307  0.00  0.00    -0.030 C 
ATOM      2  H1  <0> d           0.016  -1.824  -1.117  0.00  0.00     0.047 H 
ATOM      3  C5  <0> d          -1.259  -0.387  -2.106  0.00  0.00    -0.054 C 
ATOM      4  C6  <0> d          -1.325  -1.288  -3.341  0.00  0.00    -0.042 C 
ATOM      5  C7  <0> d          -0.007  -1.279  -4.058  0.00  0.00    -0.060 C 
ATOM      6  C8  <0> d           1.104  -0.875  -3.530  0.00  0.00    -0.098 C 
ATOM      7  C9  <0> d           1.230  -0.354  -2.127  0.00  0.00    -0.043 C 
ATOM      8  H7  <0> d          -2.143  -0.547  -1.488  0.00  0.00     0.034 H 
ATOM      9  H8  <0> d          -1.208   0.656  -2.415  0.00  0.00     0.034 H 
ATOM     10  H9  <0> d          -1.561  -2.307  -3.033  0.00  0.00     0.039 H 
ATOM     11  H10 <0> d          -2.104  -0.925  -4.011  0.00  0.00     0.039 H 
ATOM     12  H11 <0> d           1.998  -0.919  -4.135  0.00  0.00     0.077 H 
ATOM     13  H12 <0> d           1.312   0.732  -2.154  0.00  0.00     0.039 H 
ATOM     14  H13 <0> d           2.123  -0.771  -1.662  0.00  0.00     0.039 H 
ENDROOT
BRANCH   1  15
ATOM     15  C2  <0> d           0.002  -0.004   0.002  0.00  0.00    -0.089 C 
ATOM     16  C3  <0> d           0.022  -0.665   1.133  0.00  0.00    -0.119 C 
ATOM     17  H5  <0> d           0.036  -1.745   1.127  0.00  0.00     0.067 H 
ATOM     18  H6  <0> d           0.023  -0.130   2.071  0.00  0.00     0.067 H 
BRANCH  15  19
ATOM     19  C1  <0> d          -0.018   1.503   0.010  0.00  0.00    -0.055 C 
ATOM     20  H2  <0> d           1.004   1.880   0.003  0.00  0.00     0.033 H 
ATOM     21  H3  <0> d          -0.545   1.864  -0.873  0.00  0.00     0.033 H 
ATOM     22  H4  <0> d          -0.529   1.854   0.907  0.00  0.00     0.033 H 
ENDBRANCH  15  19
ENDBRANCH   1  15
BRANCH   5  23
ATOM     23  C10 <0> d           0.026  -1.771  -5.482  0.00  0.00     0.037 C 
ATOM     24  H14 <0> d          -0.308  -2.808  -5.516  0.00  0.00     0.081 H 
ATOM     25  H15 <0> d          -0.634  -1.156  -6.094  0.00  0.00     0.081 H 
BRANCH  23  26
ATOM     26  O1  <0> d           1.361  -1.683  -5.986  0.00  0.00    -0.397 OA
ATOM     27  H16 <0> d           1.456  -1.984  -6.900  0.00  0.00     0.209 HD
ENDBRANCH  23  26
ENDBRANCH   5  23
TORSDOF 4
