REMARK  7 active torsions:
REMARK  status: ('A' for Active; 'I' for Inactive)
REMARK    1  A    between atoms: C1_1  and  C2_2 
REMARK    2  A    between atoms: C2_2  and  O1_3 
REMARK    3  A    between atoms: O1_3  and  C3_4 
REMARK    4  A    between atoms: C3_4  and  C4_6 
REMARK    5  A    between atoms: C4_6  and  C5_8 
REMARK    6  A    between atoms: C4_6  and  C6_9 
REMARK    7  A    between atoms: C6_9  and  C7_10 
ROOT
ATOM      1  C4  <0> d          -3.307   1.388   1.207  0.00  0.00     0.030 C 
ATOM      2  H1  <0> d          -2.734   1.278   2.128  0.00  0.00     0.055 H 
ENDROOT
BRANCH   1   3
ATOM      3  C3  <0> d          -4.545   0.532   1.281  0.00  0.00     0.262 C 
ATOM      4  O2  <0> d          -4.725  -0.342   0.467  0.00  0.00    -0.265 OA
BRANCH   3   5
ATOM      5  O1  <0> d          -5.449   0.742   2.251  0.00  0.00    -0.322 OA
BRANCH   5   6
ATOM      6  C2  <0> d          -6.617  -0.119   2.260  0.00  0.00     0.025 C 
ATOM      7  H5  <0> d          -7.162  -0.004   1.323  0.00  0.00     0.074 H 
ATOM      8  H6  <0> d          -6.303  -1.157   2.372  0.00  0.00     0.074 H 
BRANCH   6   9
ATOM      9  C1  <0> d          -7.526   0.267   3.429  0.00  0.00    -0.056 C 
ATOM     10  H2  <0> d          -6.982   0.151   4.366  0.00  0.00     0.030 H 
ATOM     11  H3  <0> d          -7.841   1.305   3.317  0.00  0.00     0.030 H 
ATOM     12  H4  <0> d          -8.404  -0.380   3.436  0.00  0.00     0.030 H 
ENDBRANCH   6   9
ENDBRANCH   5   6
ENDBRANCH   3   5
ENDBRANCH   1   3
BRANCH   1  13
ATOM     13  C5  <0> d          -3.708   2.853   1.027  0.00  0.00    -0.064 C 
ATOM     14  H7  <0> d          -4.318   3.169   1.874  0.00  0.00     0.028 H 
ATOM     15  H8  <0> d          -2.812   3.471   0.974  0.00  0.00     0.028 H 
ATOM     16  H9  <0> d          -4.281   2.962   0.106  0.00  0.00     0.028 H 
ENDBRANCH   1  13
BRANCH   1  17
ATOM     17  C6  <0> d          -2.451   0.944   0.019  0.00  0.00    -0.039 C 
ATOM     18  H10 <0> d          -2.989   1.136  -0.909  0.00  0.00     0.040 H 
ATOM     19  H11 <0> d          -2.239  -0.122   0.102  0.00  0.00     0.040 H 
BRANCH  17  20
ATOM     20  C7  <0> d          -1.156   1.715   0.017  0.00  0.00    -0.111 C 
ATOM     21  C8  <0> d          -0.013   1.076   0.008  0.00  0.00    -0.125 C 
ATOM     22  H13 <0> d           0.002  -0.004   0.002  0.00  0.00     0.066 H 
ATOM     23  H14 <0> d           0.915   1.629   0.002  0.00  0.00     0.066 H 
ATOM     24  H12 <0> d          -1.171   2.795   0.023  0.00  0.00     0.075 H 
ENDBRANCH  17  20
ENDBRANCH   1  17
TORSDOF 7
