REMARK  5 active torsions:
REMARK  status: ('A' for Active; 'I' for Inactive)
REMARK    1  A    between atoms: C1_1  and  C2_2 
REMARK    2  A    between atoms: C2_2  and  C3_3 
REMARK    3  A    between atoms: C2_2  and  C4_4 
REMARK    4  A    between atoms: C2_2  and  C5_5 
REMARK    5  A    between atoms: C8_8  and  C11_11 
ROOT
ATOM      1  C11 <0> d           2.674  -1.844  -4.695  0.00  0.00    -0.078 C 
ATOM      2  C12 <0> d           3.223  -2.223  -5.661  0.00  0.00    -0.149 C 
ATOM      3  H14 <0> d           3.715  -2.561  -6.525  0.00  0.00     0.166 H 
ENDROOT
BRANCH   1   4
ATOM      4  C8  <0> d           2.003  -1.382  -3.517  0.00  0.00     0.017 A 
ATOM      5  C7  <0> d           0.673  -1.733  -3.285  0.00  0.00    -0.064 A 
ATOM      6  C6  <0> d           0.033  -1.285  -2.147  0.00  0.00    -0.075 A 
ATOM      7  H11 <0> d           0.145  -2.353  -3.994  0.00  0.00     0.085 H 
ATOM      8  C5  <0> d           0.707  -0.490  -1.238  0.00  0.00    -0.051 A 
ATOM      9  H10 <0> d          -0.997  -1.556  -1.966  0.00  0.00     0.084 H 
ATOM     10  C10 <0> d           2.025  -0.135  -1.464  0.00  0.00    -0.075 A 
ATOM     11  C9  <0> d           2.678  -0.581  -2.595  0.00  0.00    -0.064 A 
ATOM     12  H13 <0> d           2.545   0.489  -0.753  0.00  0.00     0.084 H 
ATOM     13  H12 <0> d           3.708  -0.306  -2.769  0.00  0.00     0.085 H 
BRANCH   8  14
ATOM     14  C2  <0> d           0.002  -0.004   0.002  0.00  0.00    -0.024 C 
BRANCH  14  15
ATOM     15  C1  <0> d          -0.019   1.526   0.010  0.00  0.00    -0.066 C 
ATOM     16  H1  <0> d           1.004   1.903   0.003  0.00  0.00     0.028 H 
ATOM     17  H2  <0> d          -0.546   1.887  -0.873  0.00  0.00     0.028 H 
ATOM     18  H3  <0> d          -0.529   1.877   0.907  0.00  0.00     0.028 H 
ENDBRANCH  14  15
BRANCH  14  19
ATOM     19  C3  <0> d           0.742  -0.511   1.242  0.00  0.00    -0.066 C 
ATOM     20  H4  <0> d           0.232  -0.159   2.138  0.00  0.00     0.028 H 
ATOM     21  H5  <0> d           0.757  -1.601   1.236  0.00  0.00     0.028 H 
ATOM     22  H6  <0> d           1.765  -0.134   1.234  0.00  0.00     0.028 H 
ENDBRANCH  14  19
BRANCH  14  23
ATOM     23  C4  <0> d          -1.433  -0.534   0.013  0.00  0.00    -0.066 C 
ATOM     24  H7  <0> d          -1.960  -0.173  -0.870  0.00  0.00     0.028 H 
ATOM     25  H8  <0> d          -1.419  -1.623   0.007  0.00  0.00     0.028 H 
ATOM     26  H9  <0> d          -1.944  -0.182   0.910  0.00  0.00     0.028 H 
ENDBRANCH  14  23
ENDBRANCH   8  14
ENDBRANCH   1   4
TORSDOF 5
