REMARK  4 active torsions:
REMARK  status: ('A' for Active; 'I' for Inactive)
REMARK    1  A    between atoms: C1_1  and  C2_2 
REMARK    2  A    between atoms: C2_2  and  C3_3 
REMARK    3  A    between atoms: C3_3  and  C4_4 
REMARK    4  A    between atoms: N1_10  and  C8_11 
ROOT
ATOM      1  C4  <0> d          -1.413  -2.063   0.004  0.00  0.00     0.014 C 
ATOM      2  H1  <0> d          -0.819  -2.428  -0.834  0.00  0.00     0.072 H 
ATOM      3  C5  <0> d          -2.852  -2.617  -0.080  0.00  0.00    -0.038 C 
ATOM      4  C6  <0> d          -3.197  -2.828   1.412  0.00  0.00     0.011 C 
ATOM      5  C7  <0> d          -1.852  -3.002   2.083  0.00  0.00     0.219 C 
ATOM      6  O1  <0> d          -1.683  -3.463   3.192  0.00  0.00    -0.273 OA
ATOM      7  N1  <0> d          -0.870  -2.571   1.270  0.00  0.00    -0.352 N 
ATOM      8  H9  <0> d          -3.524  -1.890  -0.537  0.00  0.00     0.036 H 
ATOM      9  H10 <0> d          -2.876  -3.562  -0.623  0.00  0.00     0.036 H 
ATOM     10  H11 <0> d          -3.713  -1.955   1.812  0.00  0.00     0.047 H 
ATOM     11  H12 <0> d          -3.806  -3.723   1.541  0.00  0.00     0.047 H 
ENDROOT
BRANCH   1  12
ATOM     12  C3  <0> d          -1.433  -0.534   0.013  0.00  0.00    -0.046 C 
ATOM     13  H7  <0> d          -1.944  -0.182   0.910  0.00  0.00     0.035 H 
ATOM     14  H8  <0> d          -1.960  -0.173  -0.870  0.00  0.00     0.035 H 
BRANCH  12  15
ATOM     15  C2  <0> d           0.002  -0.004   0.002  0.00  0.00    -0.067 C 
ATOM     16  H5  <0> d           0.512  -0.356  -0.895  0.00  0.00     0.032 H 
ATOM     17  H6  <0> d           0.529  -0.365   0.885  0.00  0.00     0.032 H 
BRANCH  15  18
ATOM     18  C1  <0> d          -0.019   1.526   0.010  0.00  0.00    -0.076 C 
ATOM     19  H2  <0> d           1.004   1.903   0.003  0.00  0.00     0.027 H 
ATOM     20  H3  <0> d          -0.546   1.887  -0.873  0.00  0.00     0.027 H 
ATOM     21  H4  <0> d          -0.529   1.877   0.907  0.00  0.00     0.027 H 
ENDBRANCH  15  18
ENDBRANCH  12  15
ENDBRANCH   1  12
BRANCH   7  22
ATOM     22  C8  <0> d           0.557  -2.604   1.603  0.00  0.00    -0.016 C 
ATOM     23  H13 <0> d           0.837  -1.672   2.095  0.00  0.00     0.056 H 
ATOM     24  H14 <0> d           0.754  -3.442   2.273  0.00  0.00     0.056 H 
ATOM     25  H15 <0> d           1.140  -2.724   0.691  0.00  0.00     0.056 H 
ENDBRANCH   7  22
TORSDOF 4
