REMARK  3 active torsions:
REMARK  status: ('A' for Active; 'I' for Inactive)
REMARK    1  A    between atoms: C2_2  and  C3_3 
REMARK    2  A    between atoms: C7_10  and  C8_12 
REMARK    3  A    between atoms: C8_12  and  O1_13 
ROOT
ATOM      1  C3  <0> d           1.429   1.650  -0.003  0.00  0.00    -0.026 C 
ATOM      2  H1  <0> d           1.592   2.301   0.856  0.00  0.00     0.047 H 
ATOM      3  C4  <0> d           1.496   2.467  -1.332  0.00  0.00    -0.030 C 
ATOM      4  H2  <0> d           2.493   2.720  -1.694  0.00  0.00     0.047 H 
ATOM      5  C5  <0> d           0.616   1.560  -2.268  0.00  0.00    -0.051 C 
ATOM      6  C6  <0> d          -0.634   1.634  -1.316  0.00  0.00    -0.031 C 
ATOM      7  H3  <0> d          -1.550   1.151  -1.656  0.00  0.00     0.046 H 
ATOM      8  C7  <0> d          -0.013   1.086   0.008  0.00  0.00    -0.020 C 
ATOM      9  H4  <0> d           0.002  -0.004   0.002  0.00  0.00     0.045 H 
ATOM     10  C9  <0> d          -0.694   3.178  -1.078  0.00  0.00    -0.102 C 
ATOM     11  C10 <0> d           0.540   3.642  -1.096  0.00  0.00    -0.102 C 
ATOM     12  H8  <0> d           0.429   2.019  -3.239  0.00  0.00     0.035 H 
ATOM     13  H9  <0> d           1.011   0.548  -2.360  0.00  0.00     0.035 H 
ATOM     14  H13 <0> d          -1.587   3.766  -0.931  0.00  0.00     0.077 H 
ATOM     15  H14 <0> d           0.828   4.675  -0.967  0.00  0.00     0.077 H 
ENDROOT
BRANCH   1  16
ATOM     16  C2  <0> d           2.436   0.529  -0.015  0.00  0.00    -0.107 C 
ATOM     17  C1  <0> d           3.305   0.418   0.960  0.00  0.00    -0.124 C 
ATOM     18  H5  <0> d           3.298   1.130   1.772  0.00  0.00     0.066 H 
ATOM     19  H6  <0> d           4.026  -0.385   0.952  0.00  0.00     0.066 H 
ATOM     20  H7  <0> d           2.443  -0.183  -0.827  0.00  0.00     0.076 H 
ENDBRANCH   1  16
BRANCH   8  21
ATOM     21  C8  <0> d          -0.784   1.605   1.223  0.00  0.00     0.021 C 
ATOM     22  H10 <0> d          -0.249   1.339   2.134  0.00  0.00     0.074 H 
ATOM     23  H11 <0> d          -0.876   2.689   1.159  0.00  0.00     0.074 H 
BRANCH  21  24
ATOM     24  O1  <0> d          -2.087   1.018   1.246  0.00  0.00    -0.400 OA
ATOM     25  H12 <0> d          -2.633   1.302   1.992  0.00  0.00     0.209 HD
ENDBRANCH  21  24
ENDBRANCH   8  21
TORSDOF 3
