REMARK  6 active torsions:
REMARK  status: ('A' for Active; 'I' for Inactive)
REMARK    1  A    between atoms: C1_1  and  C2_2 
REMARK    2  A    between atoms: C2_2  and  C3_3 
REMARK    3  A    between atoms: C4_4  and  C9_11 
REMARK    4  A    between atoms: C5_5  and  C7_9 
REMARK    5  A    between atoms: N1_6  and  C6_8 
REMARK    6  A    between atoms: C7_9  and  C8_10 
ROOT
ATOM      1  C3  <0> d          -1.412  -0.526   0.013  0.00  0.00     0.062 A 
ATOM      2  C4  <0> d          -2.172  -0.810   1.151  0.00  0.00    -0.011 A 
ATOM      3  C5  <0> d          -3.383  -1.255   0.743  0.00  0.00     0.037 A 
ATOM      4  N1  <0> d          -3.389  -1.252  -0.606  0.00  0.00    -0.278 N 
ATOM      5  N2  <0> d          -2.142  -0.785  -1.042  0.00  0.00    -0.177 NA
ENDROOT
BRANCH   1   6
ATOM      6  C2  <0> d           0.002  -0.004   0.002  0.00  0.00    -0.026 C 
ATOM      7  H4  <0> d           0.512  -0.356  -0.895  0.00  0.00     0.041 H 
ATOM      8  H5  <0> d           0.529  -0.365   0.885  0.00  0.00     0.041 H 
BRANCH   6   9
ATOM      9  C1  <0> d          -0.019   1.526   0.010  0.00  0.00    -0.071 C 
ATOM     10  H1  <0> d           1.004   1.903   0.003  0.00  0.00     0.028 H 
ATOM     11  H2  <0> d          -0.546   1.887  -0.873  0.00  0.00     0.028 H 
ATOM     12  H3  <0> d          -0.529   1.877   0.907  0.00  0.00     0.028 H 
ENDBRANCH   6   9
ENDBRANCH   1   6
BRANCH   2  13
ATOM     13  C9  <0> d          -1.722  -0.651   2.581  0.00  0.00    -0.047 C 
ATOM     14  H14 <0> d          -1.969   0.352   2.930  0.00  0.00     0.033 H 
ATOM     15  H15 <0> d          -2.228  -1.387   3.205  0.00  0.00     0.033 H 
ATOM     16  H16 <0> d          -0.644  -0.801   2.642  0.00  0.00     0.033 H 
ENDBRANCH   2  13
BRANCH   4  17
ATOM     17  C6  <0> d          -4.504  -1.660  -1.465  0.00  0.00     0.003 C 
ATOM     18  H6  <0> d          -5.136  -0.797  -1.674  0.00  0.00     0.059 H 
ATOM     19  H7  <0> d          -4.114  -2.060  -2.401  0.00  0.00     0.059 H 
ATOM     20  H8  <0> d          -5.091  -2.426  -0.958  0.00  0.00     0.059 H 
ENDBRANCH   4  17
BRANCH   3  21
ATOM     21  C7  <0> d          -4.521  -1.679   1.635  0.00  0.00    -0.028 C 
ATOM     22  H9  <0> d          -4.478  -1.119   2.570  0.00  0.00     0.041 H 
ATOM     23  H10 <0> d          -5.469  -1.478   1.135  0.00  0.00     0.041 H 
BRANCH  21  24
ATOM     24  C8  <0> d          -4.408  -3.175   1.931  0.00  0.00    -0.071 C 
ATOM     25  H11 <0> d          -5.231  -3.482   2.577  0.00  0.00     0.028 H 
ATOM     26  H12 <0> d          -4.451  -3.735   0.997  0.00  0.00     0.028 H 
ATOM     27  H13 <0> d          -3.460  -3.376   2.432  0.00  0.00     0.028 H 
ENDBRANCH  21  24
ENDBRANCH   3  21
TORSDOF 6
