REMARK  2 active torsions:
REMARK  status: ('A' for Active; 'I' for Inactive)
REMARK    1  A    between atoms: C1_1  and  C2_2 
REMARK    2  A    between atoms: C7_7  and  C8_8 
ROOT
ATOM      1  C2  <0> d          -0.017   1.378   0.010  0.00  0.00    -0.056 A 
ATOM      2  C3  <0> d           1.171   2.085   0.002  0.00  0.00    -0.077 A 
ATOM      3  C4  <0> d           2.377   1.411  -0.014  0.00  0.00    -0.082 A 
ATOM      4  C5  <0> d           2.396   0.028  -0.022  0.00  0.00    -0.082 A 
ATOM      5  C6  <0> d           1.209  -0.679  -0.014  0.00  0.00    -0.077 A 
ATOM      6  C7  <0> d           0.002  -0.004   0.002  0.00  0.00    -0.056 A 
ATOM      7  H4  <0> d           1.157   3.165   0.008  0.00  0.00     0.084 H 
ATOM      8  H5  <0> d           3.305   1.963  -0.021  0.00  0.00     0.083 H 
ATOM      9  H6  <0> d           3.338  -0.499  -0.034  0.00  0.00     0.083 H 
ATOM     10  H7  <0> d           1.223  -1.759  -0.020  0.00  0.00     0.084 H 
ENDROOT
BRANCH   1  11
ATOM     11  C1  <0> d          -1.332   2.114   0.020  0.00  0.00    -0.051 C 
ATOM     12  H1  <0> d          -1.644   2.285   1.050  0.00  0.00     0.033 H 
ATOM     13  H2  <0> d          -1.217   3.071  -0.489  0.00  0.00     0.033 H 
ATOM     14  H3  <0> d          -2.086   1.517  -0.494  0.00  0.00     0.033 H 
ENDBRANCH   1  11
BRANCH   6  15
ATOM     15  C8  <0> d          -1.293  -0.775   0.010  0.00  0.00    -0.051 C 
ATOM     16  H8  <0> d          -1.615  -0.956  -1.015  0.00  0.00     0.033 H 
ATOM     17  H9  <0> d          -1.145  -1.728   0.518  0.00  0.00     0.033 H 
ATOM     18  H10 <0> d          -2.055  -0.199   0.535  0.00  0.00     0.033 H 
ENDBRANCH   6  15
TORSDOF 2
