REMARK  3 active torsions:
REMARK  status: ('A' for Active; 'I' for Inactive)
REMARK    1  A    between atoms: C1_1  and  C2_2 
REMARK    2  A    between atoms: C2_2  and  C3_3 
REMARK    3  A    between atoms: N1_6  and  N4_12 
ROOT
ATOM      1  C3  <0> d           1.141  -0.638  -0.012  0.00  0.00     0.123 A 
ATOM      2  C4  <0> d           2.386   0.135  -0.020  0.00  0.00     0.292 A 
ATOM      3  O1  <0> d           3.464  -0.431  -0.034  0.00  0.00    -0.264 OA
ATOM      4  N1  <0> d           2.324   1.483  -0.012  0.00  0.00    -0.191 N 
ATOM      5  C5  <0> d           1.128   2.102   0.003  0.00  0.00     0.360 A 
ATOM      6  O2  <0> d           1.082   3.317   0.009  0.00  0.00    -0.243 OA
ATOM      7  N2  <0> d          -0.017   1.396   0.010  0.00  0.00    -0.227 N 
ATOM      8  H1  <0> d          -0.867   1.863   0.016  0.00  0.00     0.194 HD
ATOM      9  N3  <0> d           0.002  -0.004   0.002  0.00  0.00    -0.170 NA
ENDROOT
BRANCH   1  10
ATOM     10  C2  <0> d           1.178  -2.145  -0.021  0.00  0.00    -0.021 C 
ATOM     11  H5  <0> d           1.692  -2.490  -0.918  0.00  0.00     0.042 H 
ATOM     12  H6  <0> d           1.708  -2.501   0.862  0.00  0.00     0.042 H 
BRANCH  10  13
ATOM     13  C1  <0> d          -0.252  -2.689  -0.011  0.00  0.00    -0.071 C 
ATOM     14  H2  <0> d          -0.226  -3.779  -0.017  0.00  0.00     0.028 H 
ATOM     15  H3  <0> d          -0.766  -2.343   0.886  0.00  0.00     0.028 H 
ATOM     16  H4  <0> d          -0.783  -2.333  -0.894  0.00  0.00     0.028 H 
ENDBRANCH  10  13
ENDBRANCH   1  10
BRANCH   4  17
ATOM     17  N4  <0> d           3.474   2.220  -0.019  0.00  0.00    -0.236 NA
ATOM     18  H7  <0> d           3.270   3.208  -0.012  0.00  0.00     0.144 HD
ATOM     19  H8  <0> d           4.069   1.968   0.755  0.00  0.00     0.144 HD
ENDBRANCH   4  17
TORSDOF 3
