REMARK  2 active torsions:
REMARK  status: ('A' for Active; 'I' for Inactive)
REMARK    1  A    between atoms: C1_1  and  C2_2 
REMARK    2  A    between atoms: C6_6  and  N3_12 
ROOT
ATOM      1  C2  <0> d           0.002  -0.004   0.002  0.00  0.00     0.008 A 
ATOM      2  C3  <0> d           0.007  -0.769  -1.101  0.00  0.00    -0.048 A 
ATOM      3  C4  <0> d           0.028  -2.162  -0.653  0.00  0.00     0.014 A 
ATOM      4  C5  <0> d           0.042  -3.396  -1.308  0.00  0.00    -0.043 A 
ATOM      5  C6  <0> d           0.060  -4.546  -0.531  0.00  0.00     0.044 A 
ATOM      6  C7  <0> d           0.065  -4.429   0.857  0.00  0.00     0.030 A 
ATOM      7  N1  <0> d           0.052  -3.253   1.448  0.00  0.00    -0.240 NA
ATOM      8  C8  <0> d           0.034  -2.123   0.754  0.00  0.00     0.138 A 
ATOM      9  N2  <0> d           0.024  -0.796   1.118  0.00  0.00    -0.344 N 
ATOM     10  H1  <0> d           0.029  -0.470   2.032  0.00  0.00     0.167 HD
ATOM     11  H5  <0> d          -0.002  -0.422  -2.124  0.00  0.00     0.087 H 
ATOM     12  H6  <0> d           0.037  -3.454  -2.386  0.00  0.00     0.088 H 
ATOM     13  H7  <0> d           0.080  -5.323   1.462  0.00  0.00     0.118 H 
ENDROOT
BRANCH   1  14
ATOM     14  C1  <0> d          -0.018   1.503   0.010  0.00  0.00    -0.037 C 
ATOM     15  H2  <0> d           1.004   1.880   0.003  0.00  0.00     0.035 H 
ATOM     16  H3  <0> d          -0.545   1.864  -0.873  0.00  0.00     0.035 H 
ATOM     17  H4  <0> d          -0.529   1.854   0.907  0.00  0.00     0.035 H 
ENDBRANCH   1  14
BRANCH   5  18
ATOM     18  N3  <0> d           0.074  -5.809  -1.135  0.00  0.00    -0.398 N 
ATOM     19  H8  <0> d           0.070  -5.884  -2.102  0.00  0.00     0.156 HD
ATOM     20  H9  <0> d           0.087  -6.609  -0.586  0.00  0.00     0.156 HD
ENDBRANCH   5  18
TORSDOF 2
