REMARK  0 active torsions:
REMARK  status: ('A' for Active; 'I' for Inactive)
ROOT
ATOM      1  C1  <0> d          -0.629  -2.271  -0.004  0.00  0.00    -0.064 A 
ATOM      2  C2  <0> d           0.720  -2.658  -0.019  0.00  0.00    -0.057 A 
ATOM      3  C3  <0> d           1.694  -1.706  -0.023  0.00  0.00     0.083 A 
ATOM      4  C4  <0> d           1.326  -0.347  -0.013  0.00  0.00     0.197 A 
ATOM      5  N1  <0> d           2.013   0.787  -0.013  0.00  0.00    -0.107 NA
ATOM      6  N2  <0> d           1.211   1.791   0.000  0.00  0.00    -0.022 NA
ATOM      7  N3  <0> d          -0.017   1.397   0.010  0.00  0.00    -0.040 NA
ATOM      8  N4  <0> d           0.002  -0.004   0.002  0.00  0.00    -0.204 N 
ATOM      9  C5  <0> d          -0.963  -0.962   0.006  0.00  0.00     0.008 A 
ATOM     10 Cl1  <0> d           3.369  -2.162  -0.042  0.00  0.00    -0.080 Cl
ATOM     11  H1  <0> d          -1.404  -3.024  -0.001  0.00  0.00     0.085 H 
ATOM     12  H2  <0> d           0.984  -3.705  -0.026  0.00  0.00     0.086 H 
ATOM     13  H3  <0> d          -2.003  -0.673   0.017  0.00  0.00     0.115 H 
ENDROOT
TORSDOF 0
