REMARK  2 active torsions:
REMARK  status: ('A' for Active; 'I' for Inactive)
REMARK    1  A    between atoms: C1_1  and  C2_2 
REMARK    2  A    between atoms: C4_4  and  N3_8 
ROOT
ATOM      1  C2  <0> d          -2.482   3.666   0.034  0.00  0.00     0.035 A 
ATOM      2  C3  <0> d          -1.252   3.038   0.030  0.00  0.00    -0.016 A 
ATOM      3  C4  <0> d          -1.220   1.642   0.017  0.00  0.00     0.124 A 
ATOM      4  N1  <0> d          -2.369   0.972   0.019  0.00  0.00    -0.225 NA
ATOM      5  C5  <0> d          -3.521   1.612   0.028  0.00  0.00     0.089 A 
ATOM      6  N2  <0> d          -3.584   2.929   0.035  0.00  0.00    -0.247 NA
ATOM      7  H4  <0> d          -0.338   3.612   0.033  0.00  0.00     0.092 H 
ATOM      8  H5  <0> d          -4.438   1.042   0.029  0.00  0.00     0.146 H 
ENDROOT
BRANCH   1   9
ATOM      9  C1  <0> d          -2.571   5.170   0.042  0.00  0.00    -0.035 C 
ATOM     10  H1  <0> d          -2.588   5.527   1.072  0.00  0.00     0.035 H 
ATOM     11  H2  <0> d          -1.706   5.588  -0.473  0.00  0.00     0.035 H 
ATOM     12  H3  <0> d          -3.483   5.483  -0.466  0.00  0.00     0.035 H 
ENDBRANCH   1   9
BRANCH   3  13
ATOM     13  N3  <0> d          -0.011   0.966   0.007  0.00  0.00    -0.384 N 
ATOM     14  H6  <0> d           0.002  -0.004   0.002  0.00  0.00     0.157 HD
ATOM     15  H7  <0> d           0.822   1.462   0.002  0.00  0.00     0.157 HD
ENDBRANCH   3  13
TORSDOF 2
