REMARK  7 active torsions:
REMARK  status: ('A' for Active; 'I' for Inactive)
REMARK    1  A    between atoms: C1_1  and  C2_2 
REMARK    2  A    between atoms: C2_2  and  C3_3 
REMARK    3  A    between atoms: C3_3  and  C4_4 
REMARK    4  A    between atoms: C4_4  and  O1_5 
REMARK    5  A    between atoms: O1_5  and  C5_6 
REMARK    6  A    between atoms: C5_6  and  C6_7 
REMARK    7  A    between atoms: C6_7  and  C7_8 
ROOT
ATOM      1  C4  <0> d          -4.870   0.772   0.029  0.00  0.00     0.019 C 
ATOM      2  H8  <0> d          -4.858   0.148  -0.864  0.00  0.00     0.074 H 
ATOM      3  H9  <0> d          -4.850   0.138   0.916  0.00  0.00     0.074 H 
ENDROOT
BRANCH   1   4
ATOM      4  C3  <0> d          -6.143   1.622   0.040  0.00  0.00    -0.045 C 
ATOM      5  H6  <0> d          -6.155   2.246   0.933  0.00  0.00     0.036 H 
ATOM      6  H7  <0> d          -6.163   2.256  -0.847  0.00  0.00     0.036 H 
BRANCH   4   7
ATOM      7  C2  <0> d          -7.368   0.706   0.041  0.00  0.00    -0.067 C 
ATOM      8  H4  <0> d          -7.356   0.082  -0.853  0.00  0.00     0.032 H 
ATOM      9  H5  <0> d          -7.347   0.072   0.927  0.00  0.00     0.032 H 
BRANCH   7  10
ATOM     10  C1  <0> d          -8.640   1.556   0.051  0.00  0.00    -0.076 C 
ATOM     11  H1  <0> d          -8.653   2.180   0.945  0.00  0.00     0.027 H 
ATOM     12  H2  <0> d          -8.661   2.190  -0.835  0.00  0.00     0.027 H 
ATOM     13  H3  <0> d          -9.513   0.903   0.052  0.00  0.00     0.027 H 
ENDBRANCH   7  10
ENDBRANCH   4   7
ENDBRANCH   1   4
BRANCH   1  14
ATOM     14  O1  <0> d          -3.726   1.627   0.029  0.00  0.00    -0.391 OA
BRANCH  14  15
ATOM     15  C5  <0> d          -2.479   0.930   0.019  0.00  0.00     0.028 C 
ATOM     16  H10 <0> d          -2.417   0.309  -0.875  0.00  0.00     0.075 H 
ATOM     17  H11 <0> d          -2.408   0.299   0.905  0.00  0.00     0.075 H 
BRANCH  15  18
ATOM     18  C6  <0> d          -1.329   1.940   0.019  0.00  0.00     0.035 C 
ATOM     19  H12 <0> d          -1.391   2.561   0.913  0.00  0.00     0.052 H 
ATOM     20  H13 <0> d          -1.400   2.570  -0.867  0.00  0.00     0.052 H 
BRANCH  18  21
ATOM     21  C7  <0> d          -0.014   1.204   0.009  0.00  0.00     0.174 C 
ATOM     22  O2  <0> d           0.002  -0.004   0.002  0.00  0.00    -0.648 OA
ATOM     23  O3  <0> d           1.139   1.891   0.001  0.00  0.00    -0.648 OA
ENDBRANCH  18  21
ENDBRANCH  15  18
ENDBRANCH  14  15
ENDBRANCH   1  14
TORSDOF 7
