REMARK  2 active torsions:
REMARK  status: ('A' for Active; 'I' for Inactive)
REMARK    1  A    between atoms: N1_5  and  C5_7 
REMARK    2  A    between atoms: C5_7  and  C6_8 
ROOT
ATOM      1  C1  <0> d          -0.768   3.460   0.446  0.00  0.00    -0.042 C 
ATOM      2  C2  <0> d          -1.266   2.058   0.019  0.00  0.00     0.011 C 
ATOM      3  C3  <0> d          -0.014   1.209   0.009  0.00  0.00     0.220 C 
ATOM      4  O1  <0> d           0.002  -0.004   0.002  0.00  0.00    -0.273 OA
ATOM      5  N1  <0> d           1.077   1.993   0.003  0.00  0.00    -0.342 N 
ATOM      6  C4  <0> d           0.711   3.415   0.003  0.00  0.00    -0.001 C 
ATOM      7  H1  <0> d          -0.848   3.594   1.525  0.00  0.00     0.036 H 
ATOM      8  H2  <0> d          -1.310   4.243  -0.084  0.00  0.00     0.036 H 
ATOM      9  H3  <0> d          -1.710   2.095  -0.976  0.00  0.00     0.047 H 
ATOM     10  H4  <0> d          -1.983   1.672   0.743  0.00  0.00     0.047 H 
ATOM     11  H5  <0> d           1.334   3.964   0.710  0.00  0.00     0.064 H 
ATOM     12  H6  <0> d           0.818   3.832  -0.998  0.00  0.00     0.064 H 
ENDROOT
BRANCH   5  13
ATOM     13  C5  <0> d           2.454   1.494  -0.004  0.00  0.00     0.077 C 
ATOM     14  H7  <0> d           3.102   2.207   0.505  0.00  0.00     0.081 H 
ATOM     15  H8  <0> d           2.495   0.534   0.510  0.00  0.00     0.081 H 
BRANCH  13  16
ATOM     16  C6  <0> d           2.919   1.321  -1.428  0.00  0.00     0.191 C 
ATOM     17  O2  <0> d           2.176   1.588  -2.342  0.00  0.00    -0.647 OA
ATOM     18  O3  <0> d           4.158   0.871  -1.679  0.00  0.00    -0.647 OA
ENDBRANCH  13  16
ENDBRANCH   5  13
TORSDOF 2
