REMARK  3 active torsions:
REMARK  status: ('A' for Active; 'I' for Inactive)
REMARK    1  A    between atoms: C1_1  and  C2_2 
REMARK    2  A    between atoms: C2_2  and  C3_3 
REMARK    3  A    between atoms: C4_5  and  N3_10 
ROOT
ATOM      1  C3  <0> d          -1.412  -0.526   0.013  0.00  0.00     0.129 A 
ATOM      2  N1  <0> d          -2.003  -0.748   1.169  0.00  0.00    -0.216 NA
ATOM      3  C4  <0> d          -3.251  -1.208   1.216  0.00  0.00     0.126 A 
ATOM      4  C5  <0> d          -3.927  -1.453   0.020  0.00  0.00    -0.000 A 
ATOM      5  C6  <0> d          -3.266  -1.204  -1.169  0.00  0.00     0.131 A 
ATOM      6  N2  <0> d          -2.023  -0.741  -1.134  0.00  0.00    -0.221 NA
ATOM      7 Cl1  <0> d          -4.056  -1.489  -2.689  0.00  0.00    -0.062 Cl
ATOM      8  H6  <0> d          -4.940  -1.826   0.023  0.00  0.00     0.094 H 
ENDROOT
BRANCH   1   9
ATOM      9  C2  <0> d           0.002  -0.004   0.002  0.00  0.00    -0.011 C 
ATOM     10  H4  <0> d           0.512  -0.356  -0.895  0.00  0.00     0.044 H 
ATOM     11  H5  <0> d           0.529  -0.365   0.885  0.00  0.00     0.044 H 
BRANCH   9  12
ATOM     12  C1  <0> d          -0.019   1.526   0.010  0.00  0.00    -0.070 C 
ATOM     13  H1  <0> d           1.004   1.903   0.003  0.00  0.00     0.028 H 
ATOM     14  H2  <0> d          -0.546   1.887  -0.873  0.00  0.00     0.028 H 
ATOM     15  H3  <0> d          -0.529   1.877   0.907  0.00  0.00     0.028 H 
ENDBRANCH   9  12
ENDBRANCH   1   9
BRANCH   3  16
ATOM     16  N3  <0> d          -3.869  -1.441   2.434  0.00  0.00    -0.384 N 
ATOM     17  H7  <0> d          -3.391  -1.269   3.261  0.00  0.00     0.157 HD
ATOM     18  H8  <0> d          -4.778  -1.777   2.460  0.00  0.00     0.157 HD
ENDBRANCH   3  16
TORSDOF 3
