REMARK  2 active torsions:
REMARK  status: ('A' for Active; 'I' for Inactive)
REMARK    1  A    between atoms: N2_4  and  C4_7 
REMARK    2  A    between atoms: C3_5  and  N3_6 
ROOT
ATOM      1  C4  <0> d           2.493  -0.323  -0.024  0.00  0.00     0.036 C 
ATOM      2  C5  <0> d           3.227  -0.879  -1.261  0.00  0.00    -0.044 C 
ATOM      3  C6  <0> d           4.657  -1.184  -0.749  0.00  0.00    -0.063 C 
ATOM      4  C7  <0> d           4.400  -1.727   0.679  0.00  0.00    -0.063 C 
ATOM      5  C8  <0> d           3.239  -0.862   1.210  0.00  0.00    -0.044 C 
ATOM      6  H5  <0> d           2.522   0.766  -0.030  0.00  0.00     0.076 H 
ATOM      7  H6  <0> d           2.745  -1.791  -1.613  0.00  0.00     0.036 H 
ATOM      8  H7  <0> d           3.257  -0.132  -2.054  0.00  0.00     0.036 H 
ATOM      9  H8  <0> d           5.257  -0.275  -0.714  0.00  0.00     0.033 H 
ATOM     10  H9  <0> d           5.139  -1.940  -1.369  0.00  0.00     0.033 H 
ATOM     11  H10 <0> d           5.287  -1.600   1.301  0.00  0.00     0.033 H 
ATOM     12  H11 <0> d           4.108  -2.777   0.641  0.00  0.00     0.033 H 
ATOM     13  H12 <0> d           3.630  -0.034   1.801  0.00  0.00     0.036 H 
ATOM     14  H13 <0> d           2.567  -1.470   1.816  0.00  0.00     0.036 H 
ENDROOT
BRANCH   1  15
ATOM     15  N2  <0> d           1.104  -0.788  -0.013  0.00  0.00    -0.250 N 
ATOM     16  N1  <0> d           0.682  -2.124  -0.016  0.00  0.00    -0.183 NA
ATOM     17  C2  <0> d          -0.626  -2.144  -0.004  0.00  0.00     0.025 A 
ATOM     18  C1  <0> d          -1.085  -0.824   0.014  0.00  0.00    -0.021 A 
ATOM     19  H2  <0> d          -1.245  -3.029  -0.002  0.00  0.00     0.117 H 
ATOM     20  C3  <0> d           0.002  -0.004   0.002  0.00  0.00     0.119 A 
ATOM     21  H1  <0> d          -2.119  -0.510   0.031  0.00  0.00     0.091 H 
BRANCH  20  22
ATOM     22  N3  <0> d          -0.017   1.388   0.010  0.00  0.00    -0.384 N 
ATOM     23  H3  <0> d           0.817   1.884   0.004  0.00  0.00     0.157 HD
ATOM     24  H4  <0> d          -0.863   1.861   0.016  0.00  0.00     0.157 HD
ENDBRANCH  20  22
ENDBRANCH   1  15
TORSDOF 2
