REMARK  6 active torsions:
REMARK  status: ('A' for Active; 'I' for Inactive)
REMARK    1  A    between atoms: C1_1  and  O1_2 
REMARK    2  A    between atoms: O1_2  and  C2_3 
REMARK    3  A    between atoms: C2_3  and  C3_4 
REMARK    4  A    between atoms: C2_3  and  O2_10 
REMARK    5  A    between atoms: C3_4  and  N1_5 
REMARK    6  A    between atoms: O2_10  and  C8_11 
ROOT
ATOM      1  C2  <0> d          -0.942   1.162  -1.300  0.00  0.00     0.145 C 
ATOM      2  H4  <0> d          -1.913   0.732  -1.548  0.00  0.00     0.131 H 
ENDROOT
BRANCH   1   3
ATOM      3  O1  <0> d          -1.107   2.536  -0.944  0.00  0.00    -0.364 OA
BRANCH   3   4
ATOM      4  C1  <0> d          -2.144   3.204  -1.666  0.00  0.00     0.007 C 
ATOM      5  H1  <0> d          -2.130   4.266  -1.423  0.00  0.00     0.066 H 
ATOM      6  H2  <0> d          -1.984   3.073  -2.736  0.00  0.00     0.066 H 
ATOM      7  H3  <0> d          -3.110   2.781  -1.389  0.00  0.00     0.066 H 
ENDBRANCH   3   4
ENDBRANCH   1   3
BRANCH   1   8
ATOM      8  C3  <0> d          -0.331   0.400  -0.123  0.00  0.00     0.044 C 
ATOM      9  H5  <0> d          -0.123  -0.627  -0.423  0.00  0.00     0.072 H 
ATOM     10  H6  <0> d           0.596   0.884   0.182  0.00  0.00     0.072 H 
BRANCH   8  11
ATOM     11  N1  <0> d          -1.273   0.399   1.000  0.00  0.00    -0.362 N 
ATOM     12  C7  <0> d          -2.232  -0.543   1.231  0.00  0.00    -0.021 A 
ATOM     13  C6  <0> d          -2.896  -0.201   2.354  0.00  0.00    -0.067 A 
ATOM     14  H10 <0> d          -2.426  -1.412   0.620  0.00  0.00     0.111 H 
ATOM     15  C5  <0> d          -2.326   0.995   2.833  0.00  0.00    -0.067 A 
ATOM     16  H9  <0> d          -3.714  -0.745   2.803  0.00  0.00     0.085 H 
ATOM     17  C4  <0> d          -1.332   1.336   1.988  0.00  0.00    -0.021 A 
ATOM     18  H8  <0> d          -2.627   1.537   3.717  0.00  0.00     0.085 H 
ATOM     19  H7  <0> d          -0.694   2.203   2.078  0.00  0.00     0.111 H 
ENDBRANCH   8  11
ENDBRANCH   1   8
BRANCH   1  20
ATOM     20  O2  <0> d          -0.075   1.065  -2.432  0.00  0.00    -0.364 OA
BRANCH  20  21
ATOM     21  C8  <0> d          -0.680   1.465  -3.663  0.00  0.00     0.007 C 
ATOM     22  H11 <0> d          -1.685   1.049  -3.727  0.00  0.00     0.066 H 
ATOM     23  H12 <0> d          -0.734   2.553  -3.705  0.00  0.00     0.066 H 
ATOM     24  H13 <0> d          -0.082   1.099  -4.498  0.00  0.00     0.066 H 
ENDBRANCH  20  21
ENDBRANCH   1  20
TORSDOF 6
