REMARK  0 active torsions:
REMARK  status: ('A' for Active; 'I' for Inactive)
ROOT
ATOM      1  C1  <0> d          -0.013   1.086   0.008  0.00  0.00     0.069 C 
ATOM      2  C2  <0> d          -0.721   1.574  -1.220  0.00  0.00     0.235 C 
ATOM      3  O1  <0> d          -0.525   1.000  -2.270  0.00  0.00    -0.272 OA
ATOM      4  N1  <0> d          -1.559   2.615  -1.205  0.00  0.00    -0.351 N 
ATOM      5  C3  <0> d          -1.859   3.370   0.004  0.00  0.00     0.069 C 
ATOM      6  C4  <0> d          -1.518   2.585   1.235  0.00  0.00     0.235 C 
ATOM      7  O2  <0> d          -2.028   2.905   2.288  0.00  0.00    -0.272 OA
ATOM      8  N2  <0> d          -0.678   1.547   1.219  0.00  0.00    -0.351 N 
ATOM      9  H1  <0> d           0.002  -0.004   0.002  0.00  0.00     0.078 H 
ATOM     10  H2  <0> d           1.012   1.457   0.000  0.00  0.00     0.078 H 
ATOM     11  H3  <0> d          -1.985   2.879  -2.035  0.00  0.00     0.163 HD
ATOM     12  H4  <0> d          -1.282   4.295  -0.000  0.00  0.00     0.078 H 
ATOM     13  H5  <0> d          -2.921   3.612   0.019  0.00  0.00     0.078 H 
ATOM     14  H6  <0> d          -0.502   1.081   2.051  0.00  0.00     0.163 HD
ENDROOT
TORSDOF 0
