REMARK  4 active torsions:
REMARK  status: ('A' for Active; 'I' for Inactive)
REMARK    1  A    between atoms: C1_1  and  C2_2 
REMARK    2  A    between atoms: C2_2  and  O1_3 
REMARK    3  A    between atoms: O1_3  and  C3_4 
REMARK    4  A    between atoms: C3_4  and  C4_6 
ROOT
ATOM      1  C4  <0> d          -0.018   1.510   0.010  0.00  0.00     0.088 C 
ATOM      2  H1  <0> d          -0.482   1.846   0.830  0.00  0.00     0.067 H 
ATOM      3  C5  <0> d           1.452   1.978  -0.001  0.00  0.00    -0.046 C 
ATOM      4  C6  <0> d           2.228   0.766   0.576  0.00  0.00    -0.058 C 
ATOM      5  C7  <0> d           1.458  -0.436  -0.023  0.00  0.00    -0.009 C 
ATOM      6  C8  <0> d           0.002  -0.004   0.002  0.00  0.00     0.140 C 
ATOM      7  O3  <0> d          -0.961  -0.733   0.014  0.00  0.00    -0.297 OA
ATOM      8  H7  <0> d           1.778   2.191  -1.019  0.00  0.00     0.034 H 
ATOM      9  H8  <0> d           1.580   2.853   0.635  0.00  0.00     0.034 H 
ATOM     10  H9  <0> d           2.176   0.756   1.665  0.00  0.00     0.033 H 
ATOM     11  H10 <0> d           3.264   0.770   0.239  0.00  0.00     0.033 H 
ATOM     12  H11 <0> d           1.624  -1.250   0.534  0.00  0.00     0.044 H 
ATOM     13  H12 <0> d           1.781  -0.624  -1.047  0.00  0.00     0.044 H 
ENDROOT
BRANCH   1  14
ATOM     14  C3  <0> d          -0.731   2.022  -1.215  0.00  0.00     0.270 C 
ATOM     15  O2  <0> d          -0.141   2.711  -2.013  0.00  0.00    -0.264 OA
BRANCH  14  16
ATOM     16  O1  <0> d          -2.021   1.713  -1.419  0.00  0.00    -0.321 OA
BRANCH  16  17
ATOM     17  C2  <0> d          -2.644   2.241  -2.620  0.00  0.00     0.025 C 
ATOM     18  H5  <0> d          -2.603   3.330  -2.602  0.00  0.00     0.074 H 
ATOM     19  H6  <0> d          -2.112   1.872  -3.497  0.00  0.00     0.074 H 
BRANCH  17  20
ATOM     20  C1  <0> d          -4.103   1.787  -2.680  0.00  0.00    -0.056 C 
ATOM     21  H2  <0> d          -4.144   0.698  -2.698  0.00  0.00     0.030 H 
ATOM     22  H3  <0> d          -4.635   2.156  -1.803  0.00  0.00     0.030 H 
ATOM     23  H4  <0> d          -4.571   2.183  -3.582  0.00  0.00     0.030 H 
ENDBRANCH  17  20
ENDBRANCH  16  17
ENDBRANCH  14  16
ENDBRANCH   1  14
TORSDOF 4
