REMARK  2 active torsions:
REMARK  status: ('A' for Active; 'I' for Inactive)
REMARK    1  A    between atoms: C2_3  and  C3_6 
REMARK    2  A    between atoms: C4_7  and  N5_11 
ROOT
ATOM      1  C3  <0> d          -2.596   1.088   0.020  0.00  0.00     0.183 A 
ATOM      2  C4  <0> d          -1.223   1.644   0.017  0.00  0.00     0.186 A 
ATOM      3  N3  <0> d          -1.440   2.938   0.031  0.00  0.00    -0.085 NA
ATOM      4  O2  <0> d          -2.630   3.147   0.032  0.00  0.00    -0.104 OA
ATOM      5  N4  <0> d          -3.342   2.170   0.030  0.00  0.00    -0.097 NA
ENDROOT
BRANCH   1   6
ATOM      6  C2  <0> d          -3.022  -0.334   0.015  0.00  0.00     0.213 A 
ATOM      7  N1  <0> d          -4.295  -0.790   0.018  0.00  0.00    -0.211 NA
ATOM      8  C1  <0> d          -4.200  -2.097   0.011  0.00  0.00     0.130 A 
ATOM      9  O1  <0> d          -2.897  -2.397   0.004  0.00  0.00    -0.205 OA
ATOM     10  H1  <0> d          -5.020  -2.799   0.012  0.00  0.00     0.159 H 
ATOM     11  N2  <0> d          -2.237  -1.379   0.000  0.00  0.00    -0.104 NA
ENDBRANCH   1   6
BRANCH   2  12
ATOM     12  N5  <0> d          -0.011   0.966   0.007  0.00  0.00    -0.380 N 
ATOM     13  H2  <0> d           0.002  -0.004   0.002  0.00  0.00     0.158 HD
ATOM     14  H3  <0> d           0.822   1.462   0.002  0.00  0.00     0.158 HD
ENDBRANCH   2  12
TORSDOF 2
