REMARK  2 active torsions:
REMARK  status: ('A' for Active; 'I' for Inactive)
REMARK    1  A    between atoms: C1_1  and  C2_2 
REMARK    2  A    between atoms: C5_8  and  N4_10 
ROOT
ATOM      1  C2  <0> d          -1.250   4.745   0.040  0.00  0.00     0.042 A 
ATOM      2  C3  <0> d          -0.489   5.841   0.038  0.00  0.00    -0.018 A 
ATOM      3  S1  <0> d           1.154   5.141   0.019  0.00  0.00    -0.059 SA
ATOM      4  C4  <0> d           0.678   3.429   0.014  0.00  0.00     0.213 A 
ATOM      5  N1  <0> d          -0.680   3.495   0.027  0.00  0.00    -0.197 N 
ATOM      6  N2  <0> d          -1.095   2.137   0.018  0.00  0.00     0.028 NA
ATOM      7  C5  <0> d          -0.017   1.391   0.010  0.00  0.00     0.739 A 
ATOM      8  N3  <0> d           1.060   2.181   0.004  0.00  0.00    -0.035 NA
ATOM      9  H4  <0> d          -0.788   6.879   0.047  0.00  0.00     0.098 H 
ENDROOT
BRANCH   1  10
ATOM     10  C1  <0> d          -2.751   4.880   0.055  0.00  0.00    -0.035 C 
ATOM     11  H1  <0> d          -3.123   4.918  -0.969  0.00  0.00     0.035 H 
ATOM     12  H2  <0> d          -3.187   4.023   0.569  0.00  0.00     0.035 H 
ATOM     13  H3  <0> d          -3.028   5.796   0.576  0.00  0.00     0.035 H 
ENDBRANCH   1  10
BRANCH   7  14
ATOM     14  N4  <0> d           0.002  -0.004   0.002  0.00  0.00    -0.230 N 
ATOM     15  H5  <0> d           0.849  -0.478  -0.008  0.00  0.00     0.174 HD
ATOM     16  H6  <0> d          -0.831  -0.500   0.007  0.00  0.00     0.174 HD
ENDBRANCH   7  14
TORSDOF 2
