REMARK  1 active torsions:
REMARK  status: ('A' for Active; 'I' for Inactive)
REMARK    1  A    between atoms: C1_1  and  C2_2 
ROOT
ATOM      1  C2  <0> d          -0.488   3.437   0.025  0.00  0.00     0.144 A 
ATOM      2  N1  <0> d          -1.014   2.248   0.018  0.00  0.00    -0.206 NA
ATOM      3  C3  <0> d          -0.016   1.325   0.009  0.00  0.00     0.185 A 
ATOM      4  C4  <0> d           1.189   2.047   0.002  0.00  0.00     0.125 A 
ATOM      5  O1  <0> d           0.851   3.353   0.012  0.00  0.00    -0.292 OA
ATOM      6  C5  <0> d           2.393   1.358  -0.014  0.00  0.00    -0.045 A 
ATOM      7  C6  <0> d           2.357  -0.026  -0.021  0.00  0.00    -0.063 A 
ATOM      8  C7  <0> d           1.133  -0.676  -0.012  0.00  0.00     0.005 A 
ATOM      9  N2  <0> d           0.002  -0.004   0.002  0.00  0.00    -0.239 NA
ATOM     10  H4  <0> d           3.334   1.888  -0.020  0.00  0.00     0.088 H 
ATOM     11  H5  <0> d           3.275  -0.595  -0.034  0.00  0.00     0.085 H 
ATOM     12  H6  <0> d           1.108  -1.756  -0.018  0.00  0.00     0.114 H 
ENDROOT
BRANCH   1  13
ATOM     13  C1  <0> d          -1.271   4.725   0.040  0.00  0.00    -0.015 C 
ATOM     14  H1  <0> d          -1.469   5.041  -0.984  0.00  0.00     0.038 H 
ATOM     15  H2  <0> d          -2.215   4.570   0.562  0.00  0.00     0.038 H 
ATOM     16  H3  <0> d          -0.694   5.495   0.553  0.00  0.00     0.038 H 
ENDBRANCH   1  13
TORSDOF 1
