REMARK  3 active torsions:
REMARK  status: ('A' for Active; 'I' for Inactive)
REMARK    1  A    between atoms: C1_1  and  C2_2 
REMARK    2  A    between atoms: C6_7  and  C8_10 
REMARK    3  A    between atoms: C8_10  and  C9_11 
ROOT
ATOM      1  C2  <0> d          -1.582   4.013   2.476  0.00  0.00    -0.057 C 
ATOM      2  H1  <0> d          -1.676   5.108   2.439  0.00  0.00     0.039 H 
ATOM      3  C3  <0> d          -0.774   3.612   3.712  0.00  0.00    -0.062 C 
ATOM      4  C4  <0> d          -0.643   2.089   3.764  0.00  0.00    -0.064 C 
ATOM      5  C5  <0> d           0.073   1.595   2.505  0.00  0.00    -0.061 C 
ATOM      6  C6  <0> d          -0.735   1.996   1.269  0.00  0.00    -0.045 C 
ATOM      7  H2  <0> d          -1.736   1.544   1.323  0.00  0.00     0.040 H 
ATOM      8  C7  <0> d          -0.866   3.520   1.217  0.00  0.00    -0.058 C 
ATOM      9  H6  <0> d           0.227   4.065   3.659  0.00  0.00     0.033 H 
ATOM     10  H7  <0> d          -1.289   3.967   4.617  0.00  0.00     0.033 H 
ATOM     11  H8  <0> d          -0.063   1.801   4.653  0.00  0.00     0.033 H 
ATOM     12  H9  <0> d          -1.644   1.637   3.818  0.00  0.00     0.033 H 
ATOM     13  H10 <0> d           1.074   2.048   2.452  0.00  0.00     0.033 H 
ATOM     14  H11 <0> d           0.167   0.500   2.543  0.00  0.00     0.033 H 
ATOM     15  H12 <0> d          -1.446   3.808   0.329  0.00  0.00     0.034 H 
ATOM     16  H13 <0> d           0.136   3.972   1.164  0.00  0.00     0.034 H 
ENDROOT
BRANCH   6  17
ATOM     17  C8  <0> d          -0.018   1.503   0.010  0.00  0.00     0.019 C 
ATOM     18  H14 <0> d          -0.550   1.867  -0.881  0.00  0.00     0.049 H 
ATOM     19  H15 <0> d           1.014   1.884   0.002  0.00  0.00     0.049 H 
BRANCH  17  20
ATOM     20  C9  <0> d           0.002  -0.004   0.002  0.00  0.00     0.172 C 
ATOM     21  O1  <0> d          -0.504  -0.620   0.910  0.00  0.00    -0.648 OA
ATOM     22  O2  <0> d           0.583  -0.662  -1.014  0.00  0.00    -0.648 OA
ENDBRANCH  17  20
ENDBRANCH   6  17
BRANCH   1  23
ATOM     23  C1  <0> d          -2.974   3.384   2.550  0.00  0.00    -0.073 C 
ATOM     24  H3  <0> d          -3.489   3.738   3.455  0.00  0.00     0.028 H 
ATOM     25  H4  <0> d          -2.880   2.288   2.588  0.00  0.00     0.028 H 
ATOM     26  H5  <0> d          -3.555   3.672   1.661  0.00  0.00     0.028 H 
ENDBRANCH   1  23
TORSDOF 3
