REMARK  1 active torsions:
REMARK  status: ('A' for Active; 'I' for Inactive)
REMARK    1  A    between atoms: C1_1  and  C2_2 
ROOT
ATOM      1  C2  <0> d           1.151   1.780   0.001  0.00  0.00    -0.057 A 
ATOM      2  C3  <0> d           1.117   3.185   0.009  0.00  0.00    -0.062 A 
ATOM      3  C4  <0> d          -0.064   3.838   0.023  0.00  0.00    -0.012 A 
ATOM      4  N1  <0> d          -1.239   3.145   0.031  0.00  0.00    -0.298 N 
ATOM      5  C5  <0> d          -2.548   3.515   0.046  0.00  0.00     0.093 A 
ATOM      6  N2  <0> d          -3.266   2.422   0.048  0.00  0.00    -0.143 NA
ATOM      7  N3  <0> d          -2.502   1.386   0.034  0.00  0.00    -0.131 NA
ATOM      8  C6  <0> d          -1.237   1.772   0.018  0.00  0.00     0.157 A 
ATOM      9  C7  <0> d          -0.013   1.076   0.008  0.00  0.00    -0.031 A 
ATOM     10  H4  <0> d           2.040   3.745   0.003  0.00  0.00     0.086 H 
ATOM     11  H5  <0> d          -0.079   4.918   0.029  0.00  0.00     0.112 H 
ATOM     12  H6  <0> d          -2.925   4.527   0.056  0.00  0.00     0.147 H 
ATOM     13  H7  <0> d           0.002  -0.004   0.002  0.00  0.00     0.090 H 
ENDROOT
BRANCH   1  14
ATOM     14  C1  <0> d           2.473   1.056  -0.016  0.00  0.00    -0.051 C 
ATOM     15  H1  <0> d           2.782   0.887  -1.048  0.00  0.00     0.033 H 
ATOM     16  H2  <0> d           3.224   1.659   0.494  0.00  0.00     0.033 H 
ATOM     17  H3  <0> d           2.369   0.098   0.493  0.00  0.00     0.033 H 
ENDBRANCH   1  14
TORSDOF 1
