REMARK  3 active torsions:
REMARK  status: ('A' for Active; 'I' for Inactive)
REMARK    1  A    between atoms: C1_1  and  C2_2 
REMARK    2  A    between atoms: C5_5  and  C6_8 
REMARK    3  A    between atoms: C6_8  and  C7_10 
ROOT
ATOM      1  C2  <0> d           0.002  -0.004   0.002  0.00  0.00     0.005 A 
ATOM      2  C3  <0> d           0.008  -0.785  -1.107  0.00  0.00    -0.059 A 
ATOM      3  C4  <0> d           0.028  -2.118  -0.693  0.00  0.00    -0.052 A 
ATOM      4  C5  <0> d           0.034  -2.110   0.691  0.00  0.00     0.078 A 
ATOM      5  N1  <0> d           0.023  -0.792   1.096  0.00  0.00    -0.357 N 
ATOM      6  H1  <0> d           0.028  -0.483   2.016  0.00  0.00     0.166 HD
ATOM      7  H5  <0> d          -0.001  -0.437  -2.129  0.00  0.00     0.086 H 
ATOM      8  H6  <0> d           0.037  -2.989  -1.331  0.00  0.00     0.087 H 
ENDROOT
BRANCH   4   9
ATOM      9  C6  <0> d           0.052  -3.245   1.534  0.00  0.00     0.172 C 
ATOM     10  O1  <0> d           0.054  -3.105   2.741  0.00  0.00    -0.291 OA
BRANCH   9  11
ATOM     11  C7  <0> d           0.068  -4.628   0.936  0.00  0.00    -0.015 C 
ATOM     12  H7  <0> d           0.957  -4.746   0.317  0.00  0.00     0.038 H 
ATOM     13  H8  <0> d           0.080  -5.369   1.735  0.00  0.00     0.038 H 
ATOM     14  H9  <0> d          -0.823  -4.769   0.324  0.00  0.00     0.038 H 
ENDBRANCH   9  11
ENDBRANCH   4   9
BRANCH   1  15
ATOM     15  C1  <0> d          -0.018   1.503   0.010  0.00  0.00    -0.037 C 
ATOM     16  H2  <0> d           1.004   1.880   0.003  0.00  0.00     0.035 H 
ATOM     17  H3  <0> d          -0.545   1.864  -0.873  0.00  0.00     0.035 H 
ATOM     18  H4  <0> d          -0.529   1.854   0.907  0.00  0.00     0.035 H 
ENDBRANCH   1  15
TORSDOF 3
