REMARK  5 active torsions:
REMARK  status: ('A' for Active; 'I' for Inactive)
REMARK    1  A    between atoms: C1_1  and  C2_2 
REMARK    2  A    between atoms: C1_1  and  C5_8 
REMARK    3  A    between atoms: C2_2  and  C3_3 
REMARK    4  A    between atoms: C3_3  and  N1_4 
REMARK       I    between atoms: N1_4  and  C4_5 
REMARK       I    between atoms: C4_5  and  N2_7 
REMARK    5  A    between atoms: C5_8  and  C6_9 
ROOT
ATOM      1  C2  <0> d           2.755   5.077   0.003  0.00  0.00    -0.050 C 
ATOM      2  H3  <0> d           2.248   5.465  -0.880  0.00  0.00     0.035 H 
ATOM      3  H4  <0> d           2.265   5.455   0.900  0.00  0.00     0.035 H 
ENDROOT
BRANCH   1   4
ATOM      4  C1  <0> d           2.696   3.548  -0.005  0.00  0.00    -0.055 C 
ATOM      5  H1  <0> d           3.204   3.160   0.878  0.00  0.00     0.033 H 
ATOM      6  H2  <0> d           3.187   3.170  -0.901  0.00  0.00     0.033 H 
BRANCH   4   7
ATOM      7  C5  <0> d           1.235   3.094   0.007  0.00  0.00     0.016 C 
ATOM      8  H10 <0> d           0.727   3.482  -0.876  0.00  0.00     0.049 H 
ATOM      9  H11 <0> d           0.744   3.473   0.904  0.00  0.00     0.049 H 
BRANCH   7  10
ATOM     10  C6  <0> d           1.177   1.588  -0.001  0.00  0.00     0.172 C 
ATOM     11  O2  <0> d           2.199   0.944  -0.014  0.00  0.00    -0.648 OA
ATOM     12  O3  <0> d          -0.011   0.963   0.007  0.00  0.00    -0.648 OA
ENDBRANCH   7  10
ENDBRANCH   4   7
ENDBRANCH   1   4
BRANCH   1  13
ATOM     13  C3  <0> d           4.217   5.531  -0.009  0.00  0.00    -0.003 C 
ATOM     14  H5  <0> d           4.724   5.143   0.875  0.00  0.00     0.064 H 
ATOM     15  H6  <0> d           4.707   5.152  -0.905  0.00  0.00     0.064 H 
BRANCH  13  16
ATOM     16  N1  <0> d           4.273   6.995  -0.001  0.00  0.00    -0.343 N 
ATOM     17  C4  <0> d           5.466   7.623  -0.009  0.00  0.00     0.313 C 
ATOM     18  O1  <0> d           6.494   6.974  -0.022  0.00  0.00    -0.248 OA
ATOM     19  N2  <0> d           5.518   8.969  -0.003  0.00  0.00    -0.352 N 
ATOM     20  H8  <0> d           4.697   9.486   0.008  0.00  0.00     0.160 HD
ATOM     21  H9  <0> d           6.376   9.421  -0.008  0.00  0.00     0.160 HD
ATOM     22  H7  <0> d           3.453   7.512   0.009  0.00  0.00     0.164 HD
ENDBRANCH  13  16
ENDBRANCH   1  13
TORSDOF 5
