REMARK  6 active torsions:
REMARK  status: ('A' for Active; 'I' for Inactive)
REMARK    1  A    between atoms: C1_1  and  C2_2 
REMARK    2  A    between atoms: C2_2  and  C3_3 
REMARK    3  A    between atoms: C3_3  and  C4_4 
REMARK    4  A    between atoms: C4_4  and  C5_5 
REMARK    5  A    between atoms: C5_5  and  C6_7 
REMARK    6  A    between atoms: C5_5  and  O2_12 
ROOT
ATOM      1  C4  <0> d           0.011   1.072   2.506  0.00  0.00    -0.035 C 
ATOM      2  H9  <0> d           0.026  -0.018   2.500  0.00  0.00     0.037 H 
ATOM      3  H10 <0> d           1.034   1.450   2.499  0.00  0.00     0.037 H 
ENDROOT
BRANCH   1   4
ATOM      4  C3  <0> d          -0.729   1.579   1.267  0.00  0.00    -0.063 C 
ATOM      5  H7  <0> d          -0.744   2.669   1.273  0.00  0.00     0.033 H 
ATOM      6  H8  <0> d          -1.751   1.202   1.275  0.00  0.00     0.033 H 
BRANCH   4   7
ATOM      7  C2  <0> d          -0.013   1.086   0.008  0.00  0.00    -0.068 C 
ATOM      8  H5  <0> d           0.002  -0.004   0.002  0.00  0.00     0.032 H 
ATOM      9  H6  <0> d           1.010   1.463   0.000  0.00  0.00     0.032 H 
BRANCH   7  10
ATOM     10  C1  <0> d          -0.753   1.593  -1.232  0.00  0.00    -0.077 C 
ATOM     11  H2  <0> d          -0.242   1.241  -2.128  0.00  0.00     0.027 H 
ATOM     12  H3  <0> d          -1.775   1.215  -1.224  0.00  0.00     0.027 H 
ATOM     13  H4  <0> d          -0.767   2.683  -1.226  0.00  0.00     0.027 H 
ENDBRANCH   7  10
ENDBRANCH   4   7
ENDBRANCH   1   4
BRANCH   1  14
ATOM     14  C5  <0> d          -0.705   1.566   3.765  0.00  0.00     0.082 C 
ATOM     15  H1  <0> d          -0.798   2.651   3.728  0.00  0.00     0.093 H 
BRANCH  14  16
ATOM     16  C6  <0> d           0.090   1.171   4.983  0.00  0.00     0.081 A 
ATOM     17  O1  <0> d           0.093  -0.041   5.560  0.00  0.00    -0.324 OA
ATOM     18  C9  <0> d           0.916  -0.030   6.621  0.00  0.00     0.019 A 
ATOM     19  C8  <0> d           1.451   1.199   6.732  0.00  0.00    -0.059 A 
ATOM     20  H13 <0> d           1.115  -0.867   7.275  0.00  0.00     0.123 H 
ATOM     21  C7  <0> d           0.923   1.972   5.672  0.00  0.00    -0.050 A 
ATOM     22  H12 <0> d           2.153   1.530   7.483  0.00  0.00     0.086 H 
ATOM     23  H11 <0> d           1.143   3.007   5.459  0.00  0.00     0.087 H 
ENDBRANCH  14  16
BRANCH  14  24
ATOM     24  O2  <0> d          -2.006   0.978   3.835  0.00  0.00    -0.389 OA
ATOM     25  H14 <0> d          -1.999   0.012   3.870  0.00  0.00     0.210 HD
ENDBRANCH  14  24
ENDBRANCH   1  14
TORSDOF 6
