REMARK  4 active torsions:
REMARK  status: ('A' for Active; 'I' for Inactive)
REMARK    1  A    between atoms: C1_1  and  C2_2 
REMARK    2  A    between atoms: C2_2  and  C3_3 
REMARK    3  A    between atoms: C3_3  and  C4_4 
REMARK    4  A    between atoms: C7_7  and  C8_9 
ROOT
ATOM      1  C4  <0> d           0.612   5.157   0.023  0.00  0.00     0.054 A 
ATOM      2  C5  <0> d           1.963   5.156   0.011  0.00  0.00    -0.051 A 
ATOM      3  C6  <0> d           2.375   3.815  -0.000  0.00  0.00    -0.041 A 
ATOM      4  C7  <0> d           1.239   3.055   0.007  0.00  0.00     0.151 A 
ATOM      5  O1  <0> d           0.179   3.890   0.015  0.00  0.00    -0.308 OA
ATOM      6  H8  <0> d           2.605   6.024   0.009  0.00  0.00     0.087 H 
ATOM      7  H9  <0> d           3.393   3.453  -0.012  0.00  0.00     0.088 H 
ENDROOT
BRANCH   1   8
ATOM      8  C3  <0> d          -0.265   6.383   0.038  0.00  0.00    -0.021 C 
ATOM      9  H6  <0> d          -1.195   6.158   0.559  0.00  0.00     0.043 H 
ATOM     10  H7  <0> d           0.253   7.193   0.552  0.00  0.00     0.043 H 
BRANCH   8  11
ATOM     11  C2  <0> d          -0.575   6.806  -1.399  0.00  0.00    -0.063 C 
ATOM     12  H4  <0> d           0.356   7.031  -1.920  0.00  0.00     0.033 H 
ATOM     13  H5  <0> d          -1.092   5.996  -1.913  0.00  0.00     0.033 H 
BRANCH  11  14
ATOM     14  C1  <0> d          -1.464   8.051  -1.384  0.00  0.00    -0.076 C 
ATOM     15  H1  <0> d          -1.685   8.352  -2.408  0.00  0.00     0.027 H 
ATOM     16  H2  <0> d          -2.395   7.826  -0.862  0.00  0.00     0.027 H 
ATOM     17  H3  <0> d          -0.947   8.861  -0.870  0.00  0.00     0.027 H 
ENDBRANCH  11  14
ENDBRANCH   8  11
ENDBRANCH   1   8
BRANCH   4  18
ATOM     18  C8  <0> d           1.182   1.591  -0.001  0.00  0.00     0.234 C 
ATOM     19  O2  <0> d           2.211   0.943  -0.014  0.00  0.00    -0.642 OA
ATOM     20  O3  <0> d          -0.011   0.963   0.007  0.00  0.00    -0.642 OA
ENDBRANCH   4  18
TORSDOF 4
