REMARK  0 active torsions:
REMARK  status: ('A' for Active; 'I' for Inactive)
ROOT
ATOM      1  C1  <0> d          -0.017   1.378   0.010  0.00  0.00    -0.079 A 
ATOM      2  C2  <0> d           1.170   2.086   0.002  0.00  0.00    -0.046 A 
ATOM      3  C3  <0> d           2.379   1.411  -0.013  0.00  0.00     0.117 A 
ATOM      4  C4  <0> d           2.398   0.026  -0.021  0.00  0.00    -0.025 A 
ATOM      5  C5  <0> d           1.209  -0.680  -0.013  0.00  0.00     0.036 A 
ATOM      6  C6  <0> d           0.002  -0.004   0.002  0.00  0.00    -0.062 A 
ATOM      7 Cl1  <0> d           1.232  -2.416  -0.022  0.00  0.00    -0.084 Cl
ATOM      8  F1  <0> d           3.539   2.103  -0.021  0.00  0.00    -0.206 F 
ATOM      9  H1  <0> d          -0.959   1.905   0.026  0.00  0.00     0.083 H 
ATOM     10  H2  <0> d           1.155   3.166   0.008  0.00  0.00     0.088 H 
ATOM     11  H3  <0> d           3.340  -0.501  -0.033  0.00  0.00     0.090 H 
ATOM     12  H4  <0> d          -0.926  -0.556   0.008  0.00  0.00     0.086 H 
ENDROOT
TORSDOF 0
