REMARK  9 active torsions:
REMARK  status: ('A' for Active; 'I' for Inactive)
REMARK    1  A    between atoms: C1_1  and  C2_2 
REMARK    2  A    between atoms: C2_2  and  C3_4 
REMARK    3  A    between atoms: C2_2  and  C9_10 
REMARK    4  A    between atoms: C3_4  and  C4_5 
REMARK    5  A    between atoms: C4_5  and  C5_6 
REMARK    6  A    between atoms: C5_6  and  C6_7 
REMARK    7  A    between atoms: C6_7  and  C8_9 
REMARK    8  A    between atoms: C9_10  and  C10_11 
REMARK    9  A    between atoms: C10_11  and  O1_12 
ROOT
ATOM      1  C3  <0> d          -1.433  -0.534   0.013  0.00  0.00    -0.062 C 
ATOM      2  H5  <0> d          -1.944  -0.182   0.910  0.00  0.00     0.033 H 
ATOM      3  H6  <0> d          -1.960  -0.173  -0.870  0.00  0.00     0.033 H 
ENDROOT
BRANCH   1   4
ATOM      4  C2  <0> d          -1.413  -2.063   0.004  0.00  0.00    -0.056 C 
ATOM      5  H1  <0> d          -0.826  -2.414  -0.845  0.00  0.00     0.039 H 
BRANCH   4   6
ATOM      6  C1  <0> d          -0.784  -2.572   1.303  0.00  0.00    -0.073 C 
ATOM      7  H2  <0> d           0.236  -2.195   1.385  0.00  0.00     0.028 H 
ATOM      8  H3  <0> d          -1.370  -2.221   2.152  0.00  0.00     0.028 H 
ATOM      9  H4  <0> d          -0.769  -3.662   1.297  0.00  0.00     0.028 H 
ENDBRANCH   4   6
BRANCH   4  10
ATOM     10  C9  <0> d          -2.844  -2.592  -0.110  0.00  0.00    -0.042 C 
ATOM     11  H16 <0> d          -3.406  -2.317   0.782  0.00  0.00     0.036 H 
ATOM     12  H17 <0> d          -3.322  -2.159  -0.989  0.00  0.00     0.036 H 
BRANCH  10  13
ATOM     13  C10 <0> d          -2.815  -4.116  -0.244  0.00  0.00     0.017 C 
ATOM     14  H18 <0> d          -2.253  -4.392  -1.137  0.00  0.00     0.073 H 
ATOM     15  H19 <0> d          -2.337  -4.549   0.634  0.00  0.00     0.073 H 
BRANCH  13  16
ATOM     16  O1  <0> d          -4.152  -4.610  -0.352  0.00  0.00    -0.401 OA
ATOM     17  H20 <0> d          -4.210  -5.571  -0.440  0.00  0.00     0.209 HD
ENDBRANCH  13  16
ENDBRANCH  10  13
ENDBRANCH   4  10
ENDBRANCH   1   4
BRANCH   1  18
ATOM     18  C4  <0> d           0.002  -0.004   0.002  0.00  0.00    -0.061 C 
ATOM     19  H7  <0> d           0.512  -0.356  -0.895  0.00  0.00     0.033 H 
ATOM     20  H8  <0> d           0.529  -0.365   0.885  0.00  0.00     0.033 H 
BRANCH  18  21
ATOM     21  C5  <0> d          -0.019   1.526   0.010  0.00  0.00    -0.045 C 
ATOM     22  H9  <0> d          -0.546   1.887  -0.873  0.00  0.00     0.039 H 
ATOM     23  H10 <0> d          -0.529   1.877   0.907  0.00  0.00     0.039 H 
BRANCH  21  24
ATOM     24  C6  <0> d           1.395   2.047  -0.000  0.00  0.00    -0.093 C 
ATOM     25  C7  <0> d           1.965   2.373  -1.134  0.00  0.00    -0.119 C 
ATOM     26  H11 <0> d           2.978   2.747  -1.142  0.00  0.00     0.067 H 
ATOM     27  H12 <0> d           1.421   2.268  -2.061  0.00  0.00     0.067 H 
BRANCH  24  28
ATOM     28  C8  <0> d           2.154   2.195   1.294  0.00  0.00    -0.055 C 
ATOM     29  H13 <0> d           2.690   1.270   1.507  0.00  0.00     0.033 H 
ATOM     30  H14 <0> d           2.865   3.015   1.206  0.00  0.00     0.033 H 
ATOM     31  H15 <0> d           1.455   2.404   2.103  0.00  0.00     0.033 H 
ENDBRANCH  24  28
ENDBRANCH  21  24
ENDBRANCH  18  21
ENDBRANCH   1  18
TORSDOF 9
