REMARK  1 active torsions:
REMARK  status: ('A' for Active; 'I' for Inactive)
REMARK    1  A    between atoms: C4_6  and  C5_8 
ROOT
ATOM      1  C1  <0> d          -0.019   1.541   0.011  0.00  0.00    -0.029 C 
ATOM      2  C2  <0> d           1.490   1.876  -0.002  0.00  0.00     0.011 C 
ATOM      3  C3  <0> d           2.147   0.654   0.600  0.00  0.00     0.218 C 
ATOM      4  O1  <0> d           3.282   0.614   1.026  0.00  0.00    -0.274 OA
ATOM      5  N1  <0> d           1.290  -0.381   0.595  0.00  0.00    -0.347 N 
ATOM      6  C4  <0> d           0.002  -0.004   0.002  0.00  0.00     0.096 C 
ATOM      7  H1  <0> d          -0.819  -0.396   0.603  0.00  0.00     0.089 H 
ATOM      8  H2  <0> d          -0.495   1.919   0.915  0.00  0.00     0.037 H 
ATOM      9  H3  <0> d          -0.512   1.929  -0.880  0.00  0.00     0.037 H 
ATOM     10  H4  <0> d           1.838   2.032  -1.023  0.00  0.00     0.047 H 
ATOM     11  H5  <0> d           1.690   2.757   0.609  0.00  0.00     0.047 H 
ATOM     12  H6  <0> d           1.497  -1.265   0.939  0.00  0.00     0.163 HD
ENDROOT
BRANCH   6  13
ATOM     13  C5  <0> d          -0.093  -0.519  -1.411  0.00  0.00     0.196 C 
ATOM     14  O2  <0> d           0.872  -1.053  -1.931  0.00  0.00    -0.646 OA
ATOM     15  O3  <0> d          -1.134  -0.402  -2.034  0.00  0.00    -0.646 OA
ENDBRANCH   6  13
TORSDOF 1
