REMARK  2 active torsions:
REMARK  status: ('A' for Active; 'I' for Inactive)
REMARK    1  A    between atoms: C7_7  and  O2_13 
REMARK    2  A    between atoms: C9_10  and  O1_12 
ROOT
ATOM      1  C1  <0> d           3.320  -0.132  -2.808  0.00  0.00    -0.082 A 
ATOM      2  C2  <0> d           3.284   0.911  -3.715  0.00  0.00    -0.082 A 
ATOM      3  C3  <0> d           2.625   2.081  -3.394  0.00  0.00    -0.074 A 
ATOM      4  C4  <0> d           2.000   2.215  -2.165  0.00  0.00    -0.021 A 
ATOM      5  C5  <0> d           2.036   1.173  -1.258  0.00  0.00    -0.021 A 
ATOM      6  C6  <0> d           2.696  -0.001  -1.582  0.00  0.00    -0.074 A 
ATOM      7  C7  <0> d           1.286   1.562  -0.002  0.00  0.00     0.064 C 
ATOM      8  H1  <0> d           1.755   1.177   0.916  0.00  0.00     0.090 H 
ATOM      9  C8  <0> d           1.166   3.099  -0.063  0.00  0.00    -0.009 C 
ATOM     10  C9  <0> d           1.224   3.376  -1.581  0.00  0.00     0.064 C 
ATOM     11  H2  <0> d           1.646   4.355  -1.851  0.00  0.00     0.090 H 
ATOM     12  H3  <0> d           3.834  -1.048  -3.057  0.00  0.00     0.083 H 
ATOM     13  H4  <0> d           3.770   0.810  -4.674  0.00  0.00     0.083 H 
ATOM     14  H5  <0> d           2.598   2.896  -4.103  0.00  0.00     0.084 H 
ATOM     15  H6  <0> d           2.725  -0.816  -0.874  0.00  0.00     0.084 H 
ATOM     16  H7  <0> d           0.214   3.411   0.392  0.00  0.00     0.041 H 
ATOM     17  H8  <0> d           2.002   3.555   0.487  0.00  0.00     0.041 H 
ENDROOT
BRANCH   7  18
ATOM     18  O2  <0> d          -0.011   0.963   0.007  0.00  0.00    -0.391 OA
ATOM     19  H10 <0> d          -0.693   1.141   0.852  0.00  0.00     0.210 HD
ENDBRANCH   7  18
BRANCH  10  20
ATOM     20  O1  <0> d          -0.095   3.417  -2.128  0.00  0.00    -0.391 OA
ATOM     21  H9  <0> d          -0.798   4.201  -1.811  0.00  0.00     0.210 HD
ENDBRANCH  10  20
TORSDOF 2
