REMARK  5 active torsions:
REMARK  status: ('A' for Active; 'I' for Inactive)
REMARK    1  A    between atoms: C1_1  and  C2_2 
REMARK    2  A    between atoms: C2_2  and  O1_6 
REMARK    3  A    between atoms: O1_6  and  C4_7 
REMARK    4  A    between atoms: C4_7  and  C5_8 
REMARK    5  A    between atoms: C5_8  and  O2_9 
ROOT
ATOM      1  C2  <0> d           1.415   3.446   0.007  0.00  0.00     0.117 C 
ATOM      2  H1  <0> d           0.556   3.864   0.531  0.00  0.00     0.106 H 
ATOM      3  C3  <0> d           2.653   3.854   0.691  0.00  0.00     0.090 C 
ATOM      4  N1  <0> d           3.609   4.168   1.220  0.00  0.00    -0.195 NA
ENDROOT
BRANCH   1   5
ATOM      5  C1  <0> d           1.435   3.963  -1.433  0.00  0.00    -0.041 C 
ATOM      6  H2  <0> d           1.506   5.051  -1.428  0.00  0.00     0.032 H 
ATOM      7  H3  <0> d           2.294   3.545  -1.957  0.00  0.00     0.032 H 
ATOM      8  H4  <0> d           0.518   3.661  -1.940  0.00  0.00     0.032 H 
ENDBRANCH   1   5
BRANCH   1   9
ATOM      9  O1  <0> d           1.322   2.020   0.000  0.00  0.00    -0.370 OA
BRANCH   9  10
ATOM     10  C4  <0> d          -0.019   1.526   0.010  0.00  0.00     0.041 C 
ATOM     11  H5  <0> d          -0.546   1.887  -0.873  0.00  0.00     0.077 H 
ATOM     12  H6  <0> d          -0.529   1.877   0.907  0.00  0.00     0.077 H 
BRANCH  10  13
ATOM     13  C5  <0> d           0.002  -0.004   0.002  0.00  0.00     0.036 C 
ATOM     14  H7  <0> d          -1.018  -0.381  -0.080  0.00  0.00     0.077 H 
ATOM     15  H8  <0> d           0.588  -0.355  -0.847  0.00  0.00     0.077 H 
BRANCH  13  16
ATOM     16  O2  <0> d           0.590  -0.479   1.215  0.00  0.00    -0.399 OA
ATOM     17  H9  <0> d           0.635  -1.443   1.279  0.00  0.00     0.209 HD
ENDBRANCH  13  16
ENDBRANCH  10  13
ENDBRANCH   9  10
ENDBRANCH   1   9
TORSDOF 5
