REMARK  1 active torsions:
REMARK  status: ('A' for Active; 'I' for Inactive)
REMARK    1  A    between atoms: C2_3  and  N4_10 
ROOT
ATOM      1  C1  <0> d          -0.016   1.315   0.009  0.00  0.00     0.090 A 
ATOM      2  N1  <0> d           1.089   2.033   0.003  0.00  0.00    -0.223 NA
ATOM      3  C2  <0> d           2.283   1.448  -0.012  0.00  0.00     0.146 A 
ATOM      4  C3  <0> d           2.348   0.040  -0.020  0.00  0.00     0.130 A 
ATOM      5  C4  <0> d           1.144  -0.674  -0.012  0.00  0.00     0.151 A 
ATOM      6  N2  <0> d           0.002  -0.004   0.002  0.00  0.00    -0.228 NA
ATOM      7 Cl1  <0> d           1.148  -2.410  -0.022  0.00  0.00    -0.061 Cl
ATOM      8  C5  <0> d           3.608  -0.640  -0.036  0.00  0.00     0.106 C 
ATOM      9  N3  <0> d           4.608  -1.180  -0.049  0.00  0.00    -0.191 NA
ATOM     10  H1  <0> d          -0.968   1.823   0.026  0.00  0.00     0.146 H 
ENDROOT
BRANCH   3  11
ATOM     11  N4  <0> d           3.436   2.206  -0.019  0.00  0.00    -0.383 N 
ATOM     12  H2  <0> d           3.381   3.174  -0.014  0.00  0.00     0.157 HD
ATOM     13  H3  <0> d           4.303   1.770  -0.030  0.00  0.00     0.157 HD
ENDBRANCH   3  11
TORSDOF 1
