REMARK  4 active torsions:
REMARK  status: ('A' for Active; 'I' for Inactive)
REMARK    1  A    between atoms: C1_1  and  C2_2 
REMARK    2  A    between atoms: C2_2  and  C3_4 
REMARK    3  A    between atoms: C7_8  and  C8_10 
REMARK    4  A    between atoms: C8_10  and  O2_11 
ROOT
ATOM      1  C3  <0> d          -1.256   0.600   2.219  0.00  0.00     0.102 A 
ATOM      2  C4  <0> d          -1.904   1.056   3.368  0.00  0.00    -0.051 A 
ATOM      3  C5  <0> d          -2.408   0.131   4.268  0.00  0.00    -0.079 A 
ATOM      4  C6  <0> d          -2.240  -1.218   3.995  0.00  0.00    -0.057 A 
ATOM      5  C7  <0> d          -1.581  -1.600   2.836  0.00  0.00     0.058 A 
ATOM      6  N1  <0> d          -1.117  -0.702   1.995  0.00  0.00    -0.248 NA
ATOM      7  H4  <0> d          -2.014   2.115   3.552  0.00  0.00     0.087 H 
ATOM      8  H5  <0> d          -2.918   0.453   5.164  0.00  0.00     0.083 H 
ATOM      9  H6  <0> d          -2.618  -1.964   4.678  0.00  0.00     0.086 H 
ENDROOT
BRANCH   1  10
ATOM     10  C2  <0> d          -0.718   1.572   1.248  0.00  0.00     0.174 C 
ATOM     11  O1  <0> d          -0.843   2.761   1.447  0.00  0.00    -0.291 OA
BRANCH  10  12
ATOM     12  C1  <0> d          -0.013   1.086   0.008  0.00  0.00    -0.015 C 
ATOM     13  H1  <0> d           0.002  -0.014   0.002  0.00  0.00     0.038 H 
ATOM     14  H2  <0> d           1.019   1.466   0.000  0.00  0.00     0.038 H 
ATOM     15  H3  <0> d          -0.545   1.450  -0.883  0.00  0.00     0.038 H 
ENDBRANCH  10  12
ENDBRANCH   1  10
BRANCH   5  16
ATOM     16  C8  <0> d          -1.396  -3.065   2.535  0.00  0.00     0.056 C 
ATOM     17  H7  <0> d          -1.887  -3.308   1.581  0.00  0.00     0.083 H 
ATOM     18  H8  <0> d          -0.322  -3.292   2.464  0.00  0.00     0.083 H 
BRANCH  16  19
ATOM     19  O2  <0> d          -1.979  -3.843   3.582  0.00  0.00    -0.395 OA
ATOM     20  H9  <0> d          -1.942  -4.942   3.537  0.00  0.00     0.209 HD
ENDBRANCH  16  19
ENDBRANCH   5  16
TORSDOF 4
