REMARK  1 active torsions:
REMARK  status: ('A' for Active; 'I' for Inactive)
REMARK    1  A    between atoms: C6_6  and  N1_7 
ROOT
ATOM      1  C1  <0> d          -2.399   5.109   0.051  0.00  0.00    -0.055 A 
ATOM      2  C2  <0> d          -2.402   3.751   0.045  0.00  0.00    -0.051 A 
ATOM      3  C3  <0> d          -1.184   3.046   0.030  0.00  0.00     0.085 A 
ATOM      4  C4  <0> d           0.039   3.765   0.022  0.00  0.00     0.087 A 
ATOM      5  C5  <0> d           0.014   5.168   0.029  0.00  0.00    -0.028 A 
ATOM      6  C6  <0> d          -1.196   5.827   0.044  0.00  0.00     0.028 A 
ATOM      7  N2  <0> d           1.198   3.096   0.007  0.00  0.00    -0.257 NA
ATOM      8  C7  <0> d           1.191   1.782   0.000  0.00  0.00     0.020 A 
ATOM      9  C8  <0> d          -0.013   1.076   0.008  0.00  0.00     0.020 A 
ATOM     10  N3  <0> d          -1.163   1.710   0.017  0.00  0.00    -0.257 NA
ATOM     11  H1  <0> d          -3.338   5.644   0.063  0.00  0.00     0.087 H 
ATOM     12  H2  <0> d          -3.338   3.212   0.051  0.00  0.00     0.087 H 
ATOM     13  H3  <0> d           0.938   5.728   0.023  0.00  0.00     0.090 H 
ATOM     14  H6  <0> d           2.127   1.243  -0.012  0.00  0.00     0.117 H 
ATOM     15  H7  <0> d           0.002  -0.004   0.002  0.00  0.00     0.117 H 
ENDROOT
BRANCH   6  16
ATOM     16  N1  <0> d          -1.223   7.221   0.050  0.00  0.00    -0.399 N 
ATOM     17  H4  <0> d          -0.393   7.722   0.045  0.00  0.00     0.156 HD
ATOM     18  H5  <0> d          -2.073   7.689   0.061  0.00  0.00     0.156 HD
ENDBRANCH   6  16
TORSDOF 1
