REMARK  2 active torsions:
REMARK  status: ('A' for Active; 'I' for Inactive)
REMARK    1  A    between atoms: C4_4  and  C7_7 
REMARK    2  A    between atoms: C7_7  and  N1_8 
ROOT
ATOM      1  C1  <0> d           1.175   1.783   0.000  0.00  0.00    -0.083 A 
ATOM      2  C2  <0> d          -0.013   1.076   0.008  0.00  0.00    -0.082 A 
ATOM      3  C3  <0> d          -1.219   1.751   0.017  0.00  0.00    -0.075 A 
ATOM      4  C4  <0> d          -1.238   3.133   0.030  0.00  0.00    -0.038 A 
ATOM      5  C5  <0> d          -0.050   3.840   0.022  0.00  0.00    -0.075 A 
ATOM      6  C6  <0> d           1.156   3.165   0.008  0.00  0.00    -0.082 A 
ATOM      7  H1  <0> d           2.118   1.256  -0.011  0.00  0.00     0.083 H 
ATOM      8  H2  <0> d           0.002  -0.004   0.002  0.00  0.00     0.083 H 
ATOM      9  H3  <0> d          -2.147   1.198   0.019  0.00  0.00     0.084 H 
ATOM     10  H4  <0> d          -0.065   4.920   0.028  0.00  0.00     0.084 H 
ATOM     11  H5  <0> d           2.084   3.718   0.001  0.00  0.00     0.083 H 
ENDROOT
BRANCH   4  12
ATOM     12  C7  <0> d          -2.553   3.869   0.045  0.00  0.00     0.042 C 
ATOM     13  H6  <0> d          -3.300   3.267   0.563  0.00  0.00     0.074 H 
ATOM     14  H7  <0> d          -2.431   4.820   0.563  0.00  0.00     0.074 H 
BRANCH  12  15
ATOM     15  N1  <0> d          -2.992   4.114  -1.331  0.00  0.00    -0.257 N 
ATOM     16  N3  <0> d          -2.312   4.716  -2.243  0.00  0.00    -0.067 NA
ATOM     17  N2  <0> d          -2.984   4.761  -3.339  0.00  0.00    -0.143 NA
ATOM     18  C9  <0> d          -4.168   4.170  -3.146  0.00  0.00     0.042 A 
ATOM     19  C8  <0> d          -4.183   3.751  -1.859  0.00  0.00     0.019 A 
ATOM     20  H9  <0> d          -4.957   4.050  -3.874  0.00  0.00     0.119 H 
ATOM     21  H8  <0> d          -4.985   3.231  -1.356  0.00  0.00     0.116 H 
ENDBRANCH  12  15
ENDBRANCH   4  12
TORSDOF 2
