REMARK  1 active torsions:
REMARK  status: ('A' for Active; 'I' for Inactive)
REMARK    1  A    between atoms: C5_6  and  C6_7 
REMARK       I    between atoms: C6_7  and  N2_9 
ROOT
ATOM      1  C1  <0> d          -3.685   1.541   0.028  0.00  0.00    -0.063 A 
ATOM      2  C2  <0> d          -4.847   0.790   0.029  0.00  0.00    -0.044 A 
ATOM      3  C3  <0> d          -4.758  -0.601   0.020  0.00  0.00     0.136 A 
ATOM      4  N1  <0> d          -3.576  -1.208   0.012  0.00  0.00    -0.249 NA
ATOM      5  C4  <0> d          -2.450  -0.530   0.005  0.00  0.00     0.019 A 
ATOM      6  C5  <0> d          -2.458   0.867   0.018  0.00  0.00     0.049 A 
ATOM      7  C7  <0> d          -5.955  -1.387   0.021  0.00  0.00     0.119 C 
ATOM      8  N3  <0> d          -6.905  -2.009   0.022  0.00  0.00    -0.190 NA
ATOM      9  H1  <0> d          -3.723   2.620   0.034  0.00  0.00     0.085 H 
ATOM     10  H2  <0> d          -5.811   1.276   0.036  0.00  0.00     0.088 H 
ATOM     11  H3  <0> d          -1.508  -1.059  -0.007  0.00  0.00     0.116 H 
ENDROOT
BRANCH   6  12
ATOM     12  C6  <0> d          -1.187   1.624   0.017  0.00  0.00     0.250 C 
ATOM     13  O1  <0> d          -1.204   2.839   0.023  0.00  0.00    -0.268 OA
ATOM     14  N2  <0> d          -0.011   0.966   0.007  0.00  0.00    -0.366 N 
ATOM     15  H4  <0> d           0.002  -0.004   0.002  0.00  0.00     0.159 HD
ATOM     16  H5  <0> d           0.822   1.462   0.002  0.00  0.00     0.159 HD
ENDBRANCH   6  12
TORSDOF 1
