REMARK  4 active torsions:
REMARK  status: ('A' for Active; 'I' for Inactive)
REMARK    1  A    between atoms: C1_1  and  C2_2 
REMARK    2  A    between atoms: C2_2  and  O1_3 
REMARK    3  A    between atoms: O1_3  and  C3_4 
REMARK    4  A    between atoms: C3_4  and  C4_6 
ROOT
ATOM      1  O1  <0> d           0.892  -2.811  -0.022  0.00  0.00    -0.315 OA
ENDROOT
BRANCH   1   2
ATOM      2  C2  <0> d           1.453  -4.151  -0.035  0.00  0.00     0.026 C 
ATOM      3  H4  <0> d           2.058  -4.282  -0.932  0.00  0.00     0.074 H 
ATOM      4  H5  <0> d           2.076  -4.292   0.848  0.00  0.00     0.074 H 
BRANCH   2   5
ATOM      5  C1  <0> d           0.320  -5.178  -0.029  0.00  0.00    -0.056 C 
ATOM      6  H1  <0> d          -0.304  -5.037  -0.913  0.00  0.00     0.030 H 
ATOM      7  H2  <0> d           0.741  -6.184  -0.039  0.00  0.00     0.030 H 
ATOM      8  H3  <0> d          -0.286  -5.047   0.867  0.00  0.00     0.030 H 
ENDBRANCH   2   5
ENDBRANCH   1   2
BRANCH   1   9
ATOM      9  C3  <0> d           1.762  -1.783  -0.025  0.00  0.00     0.335 C 
ATOM     10  O2  <0> d           2.958  -2.000  -0.038  0.00  0.00    -0.256 OA
BRANCH   9  11
ATOM     11  C4  <0> d           1.264  -0.393  -0.012  0.00  0.00     0.271 A 
ATOM     12  N3  <0> d           0.002  -0.004   0.002  0.00  0.00    -0.100 NA
ATOM     13  N2  <0> d          -0.015   1.284   0.009  0.00  0.00    -0.021 NA
ATOM     14  N1  <0> d           1.189   1.736   0.000  0.00  0.00    -0.021 NA
ATOM     15  N4  <0> d           1.997   0.742  -0.013  0.00  0.00    -0.100 NA
ENDBRANCH   9  11
ENDBRANCH   1   9
TORSDOF 4
