REMARK  3 active torsions:
REMARK  status: ('A' for Active; 'I' for Inactive)
REMARK    1  A    between atoms: C1_1  and  C2_2 
REMARK    2  A    between atoms: C2_2  and  C3_3 
REMARK    3  A    between atoms: C5_5  and  C8_9 
ROOT
ATOM      1  C3  <0> d           1.128  -0.688  -0.012  0.00  0.00     0.035 A 
ATOM      2  C4  <0> d           2.350  -0.044  -0.020  0.00  0.00    -0.043 A 
ATOM      3  C5  <0> d           2.379   1.355  -0.013  0.00  0.00     0.044 A 
ATOM      4  C6  <0> d           1.160   2.039   0.002  0.00  0.00    -0.050 A 
ATOM      5  C7  <0> d          -0.016   1.314   0.009  0.00  0.00     0.004 A 
ATOM      6  N1  <0> d           0.002  -0.004   0.002  0.00  0.00    -0.266 NA
ATOM      7  H6  <0> d           3.269  -0.611  -0.032  0.00  0.00     0.088 H 
ATOM      8  H7  <0> d           1.137   3.119   0.008  0.00  0.00     0.087 H 
ATOM      9  H8  <0> d          -0.963   1.834   0.017  0.00  0.00     0.114 H 
ENDROOT
BRANCH   1  10
ATOM     10  C2  <0> d           1.083  -2.195  -0.020  0.00  0.00    -0.028 C 
ATOM     11  H4  <0> d           2.105  -2.593   0.059  0.00  0.00     0.041 H 
ATOM     12  H5  <0> d           0.625  -2.543  -0.958  0.00  0.00     0.041 H 
BRANCH  10  13
ATOM     13  C1  <0> d           0.252  -2.686   1.167  0.00  0.00    -0.071 C 
ATOM     14  H1  <0> d           0.218  -3.785   1.161  0.00  0.00     0.028 H 
ATOM     15  H2  <0> d          -0.771  -2.288   1.088  0.00  0.00     0.028 H 
ATOM     16  H3  <0> d           0.710  -2.338   2.104  0.00  0.00     0.028 H 
ENDBRANCH  10  13
ENDBRANCH   1  10
BRANCH   3  17
ATOM     17  C8  <0> d           3.664   2.089  -0.021  0.00  0.00     0.209 C 
ATOM     18  O1  <0> d           4.713   1.478  -0.035  0.00  0.00    -0.644 OA
ATOM     19  O2  <0> d           3.670   3.436  -0.014  0.00  0.00    -0.644 OA
ENDBRANCH   3  17
TORSDOF 3
