REMARK  5 active torsions:
REMARK  status: ('A' for Active; 'I' for Inactive)
REMARK    1  A    between atoms: C1_1  and  C2_2 
REMARK    2  A    between atoms: C2_2  and  O1_3 
REMARK    3  A    between atoms: O1_3  and  C3_4 
REMARK    4  A    between atoms: C3_4  and  C4_6 
REMARK    5  A    between atoms: C3_4  and  C5_7 
ROOT
ATOM      1  C3  <0> d          -1.329   1.940   0.019  0.00  0.00     0.118 C 
ATOM      2  H1  <0> d          -1.397   2.594   0.901  0.00  0.00     0.099 H 
ENDROOT
BRANCH   1   3
ATOM      3  O1  <0> d          -2.400   1.000   0.136  0.00  0.00    -0.376 OA
BRANCH   3   4
ATOM      4  C2  <0> d          -3.551   1.512   0.810  0.00  0.00     0.017 C 
ATOM      5  H5  <0> d          -3.941   2.382   0.260  0.00  0.00     0.073 H 
ATOM      6  H6  <0> d          -3.274   1.818   1.829  0.00  0.00     0.073 H 
BRANCH   4   7
ATOM      7  C1  <0> d          -4.628   0.427   0.877  0.00  0.00    -0.056 C 
ATOM      8  H2  <0> d          -5.514   0.821   1.395  0.00  0.00     0.030 H 
ATOM      9  H3  <0> d          -4.238  -0.442   1.427  0.00  0.00     0.030 H 
ATOM     10  H4  <0> d          -4.905   0.122  -0.143  0.00  0.00     0.030 H 
ENDBRANCH   4   7
ENDBRANCH   3   4
ENDBRANCH   1   3
BRANCH   1  11
ATOM     11  C4  <0> d          -1.483   2.728  -1.284  0.00  0.00    -0.043 C 
ATOM     12  H7  <0> d          -0.659   3.451  -1.374  0.00  0.00     0.031 H 
ATOM     13  H8  <0> d          -2.443   3.265  -1.276  0.00  0.00     0.031 H 
ATOM     14  H9  <0> d          -1.458   2.034  -2.137  0.00  0.00     0.031 H 
ENDBRANCH   1  11
BRANCH   1  15
ATOM     15  C5  <0> d          -0.014   1.204   0.009  0.00  0.00     0.202 C 
ATOM     16  O2  <0> d           0.002  -0.004   0.002  0.00  0.00    -0.646 OA
ATOM     17  O3  <0> d           1.139   1.891   0.001  0.00  0.00    -0.646 OA
ENDBRANCH   1  15
TORSDOF 5
