REMARK  0 active torsions:
REMARK  status: ('A' for Active; 'I' for Inactive)
ROOT
ATOM      1  C1  <0> d          -0.018   1.462   0.010  0.00  0.00    -0.047 A 
ATOM      2  C2  <0> d           1.268   1.859  -0.000  0.00  0.00    -0.022 A 
ATOM      3  N1  <0> d           2.070   0.755  -0.014  0.00  0.00    -0.374 N 
ATOM      4  H1  <0> d           3.039   0.775  -0.023  0.00  0.00     0.164 HD
ATOM      5  C3  <0> d           1.321  -0.366  -0.013  0.00  0.00    -0.003 A 
ATOM      6  C4  <0> d           0.002  -0.004   0.002  0.00  0.00     0.061 A 
ATOM      7  C5  <0> d          -1.131  -0.880   0.008  0.00  0.00     0.101 C 
ATOM      8  N2  <0> d          -2.030  -1.575   0.012  0.00  0.00    -0.191 NA
ATOM      9  H2  <0> d          -0.891   2.098   0.018  0.00  0.00     0.087 H 
ATOM     10  H3  <0> d           1.609   2.884   0.002  0.00  0.00     0.111 H 
ATOM     11  H4  <0> d           1.698  -1.378  -0.022  0.00  0.00     0.113 H 
ENDROOT
TORSDOF 0
