REMARK  3 active torsions:
REMARK  status: ('A' for Active; 'I' for Inactive)
REMARK    1  A    between atoms: C1_1  and  C2_2 
REMARK    2  A    between atoms: C2_2  and  C3_4 
REMARK    3  A    between atoms: C7_8  and  O2_10 
ROOT
ATOM      1  C3  <0> d          -0.000  -0.732  -1.275  0.00  0.00     0.012 A 
ATOM      2  C4  <0> d          -0.015  -0.029  -2.485  0.00  0.00    -0.067 A 
ATOM      3  C5  <0> d          -0.017  -0.715  -3.680  0.00  0.00    -0.042 A 
ATOM      4  C6  <0> d          -0.004  -2.101  -3.688  0.00  0.00     0.149 A 
ATOM      5  C7  <0> d           0.011  -2.809  -2.491  0.00  0.00     0.105 A 
ATOM      6  C8  <0> d           0.019  -2.131  -1.286  0.00  0.00    -0.035 A 
ATOM      7  F1  <0> d          -0.006  -2.766  -4.864  0.00  0.00    -0.203 F 
ATOM      8  H4  <0> d          -0.026   1.051  -2.482  0.00  0.00     0.085 H 
ATOM      9  H5  <0> d          -0.029  -0.171  -4.613  0.00  0.00     0.088 H 
ATOM     10  H6  <0> d           0.035  -2.680  -0.356  0.00  0.00     0.089 H 
ENDROOT
BRANCH   1  11
ATOM     11  C2  <0> d           0.002  -0.004   0.002  0.00  0.00     0.155 C 
ATOM     12  O1  <0> d           0.020  -0.616   1.049  0.00  0.00    -0.293 OA
BRANCH  11  13
ATOM     13  C1  <0> d          -0.018   1.503   0.010  0.00  0.00    -0.017 C 
ATOM     14  H1  <0> d           1.004   1.880   0.003  0.00  0.00     0.038 H 
ATOM     15  H2  <0> d          -0.545   1.864  -0.873  0.00  0.00     0.038 H 
ATOM     16  H3  <0> d          -0.529   1.854   0.907  0.00  0.00     0.038 H 
ENDBRANCH  11  13
ENDBRANCH   1  11
BRANCH   5  17
ATOM     17  O2  <0> d           0.023  -4.168  -2.505  0.00  0.00    -0.358 OA
ATOM     18  H7  <0> d           0.910  -4.554  -2.516  0.00  0.00     0.217 HD
ENDBRANCH   5  17
TORSDOF 3
