REMARK  2 active torsions:
REMARK  status: ('A' for Active; 'I' for Inactive)
REMARK    1  A    between atoms: C6_6  and  C7_9 
REMARK    2  A    between atoms: C7_9  and  O2_10 
ROOT
ATOM      1  C1  <0> d           3.946   2.177  -0.438  0.00  0.00    -0.061 C 
ATOM      2  C2  <0> d           3.157   3.176   0.412  0.00  0.00    -0.059 C 
ATOM      3  C3  <0> d           1.677   3.145   0.009  0.00  0.00    -0.018 C 
ATOM      4  C4  <0> d           1.220   1.710  -0.000  0.00  0.00     0.087 A 
ATOM      5  C5  <0> d           2.063   0.650  -0.017  0.00  0.00     0.003 A 
ATOM      6  C6  <0> d           1.223  -0.470  -0.014  0.00  0.00     0.094 A 
ATOM      7  N1  <0> d           0.002  -0.004   0.002  0.00  0.00    -0.130 NA
ATOM      8  O1  <0> d          -0.014   1.210   0.009  0.00  0.00    -0.217 OA
ATOM      9  C8  <0> d           3.561   0.746  -0.037  0.00  0.00    -0.036 C 
ATOM     10  H1  <0> d           5.023   2.326  -0.274  0.00  0.00     0.033 H 
ATOM     11  H2  <0> d           3.712   2.335  -1.501  0.00  0.00     0.033 H 
ATOM     12  H3  <0> d           3.251   2.908   1.475  0.00  0.00     0.033 H 
ATOM     13  H4  <0> d           3.557   4.189   0.253  0.00  0.00     0.033 H 
ATOM     14  H5  <0> d           1.087   3.724   0.734  0.00  0.00     0.043 H 
ATOM     15  H6  <0> d           1.561   3.584  -0.993  0.00  0.00     0.043 H 
ATOM     16  H10 <0> d           3.975   0.036  -0.768  0.00  0.00     0.040 H 
ATOM     17  H11 <0> d           3.967   0.522   0.961  0.00  0.00     0.040 H 
ENDROOT
BRANCH   6  18
ATOM     18  C7  <0> d           1.641  -1.918  -0.026  0.00  0.00     0.059 C 
ATOM     19  H7  <0> d           2.611  -2.024   0.482  0.00  0.00     0.083 H 
ATOM     20  H8  <0> d           0.885  -2.522   0.498  0.00  0.00     0.083 H 
BRANCH  18  21
ATOM     21  O2  <0> d           1.758  -2.369  -1.377  0.00  0.00    -0.395 OA
ATOM     22  H9  <0> d           2.056  -3.407  -1.586  0.00  0.00     0.209 HD
ENDBRANCH  18  21
ENDBRANCH   6  18
TORSDOF 2
