REMARK  1 active torsions:
REMARK  status: ('A' for Active; 'I' for Inactive)
REMARK    1  A    between atoms: C1_1  and  C2_2 
ROOT
ATOM      1  C2  <0> d           1.164   3.438   0.009  0.00  0.00    -0.058 A 
ATOM      2  C3  <0> d          -0.034   4.122   0.024  0.00  0.00    -0.057 A 
ATOM      3  C4  <0> d          -1.238   3.416   0.032  0.00  0.00     0.048 A 
ATOM      4  C5  <0> d          -1.223   2.020   0.019  0.00  0.00    -0.026 A 
ATOM      5  C6  <0> d          -0.016   1.347   0.009  0.00  0.00     0.118 A 
ATOM      6  C7  <0> d           1.175   2.055   0.002  0.00  0.00    -0.040 A 
ATOM      7  F1  <0> d           0.002  -0.004   0.002  0.00  0.00    -0.206 F 
ATOM      8  C8  <0> d          -2.485   4.121   0.047  0.00  0.00     0.099 C 
ATOM      9  N1  <0> d          -3.473   4.680   0.059  0.00  0.00    -0.191 NA
ATOM     10  H4  <0> d          -0.040   5.202   0.030  0.00  0.00     0.086 H 
ATOM     11  H5  <0> d          -2.151   1.468   0.020  0.00  0.00     0.090 H 
ATOM     12  H6  <0> d           2.116   1.525  -0.010  0.00  0.00     0.089 H 
ENDROOT
BRANCH   1  13
ATOM     13  C1  <0> d           2.465   4.200   0.001  0.00  0.00    -0.051 C 
ATOM     14  H1  <0> d           2.768   4.389  -1.028  0.00  0.00     0.033 H 
ATOM     15  H2  <0> d           2.333   5.149   0.521  0.00  0.00     0.033 H 
ATOM     16  H3  <0> d           3.233   3.613   0.504  0.00  0.00     0.033 H 
ENDBRANCH   1  13
TORSDOF 1
