REMARK  3 active torsions:
REMARK  status: ('A' for Active; 'I' for Inactive)
REMARK    1  A    between atoms: C1_1  and  C2_2 
REMARK    2  A    between atoms: C2_2  and  C3_3 
REMARK    3  A    between atoms: C2_2  and  C5_6 
ROOT
ATOM      1  C2  <0> d          -2.515   0.980   0.020  0.00  0.00     0.087 C 
ATOM      2  C4  <0> d          -2.430  -0.119   0.995  0.00  0.00     0.075 C 
ATOM      3  N1  <0> d          -2.364  -0.967   1.748  0.00  0.00    -0.196 NA
ENDROOT
BRANCH   1   4
ATOM      4  C1  <0> d          -3.664   1.915   0.404  0.00  0.00    -0.052 C 
ATOM      5  H1  <0> d          -3.482   2.328   1.407  0.00  0.00     0.030 H 
ATOM      6  H2  <0> d          -4.609   1.352   0.405  0.00  0.00     0.030 H 
ATOM      7  H3  <0> d          -3.728   2.736  -0.325  0.00  0.00     0.030 H 
ENDBRANCH   1   4
BRANCH   1   8
ATOM      8  C3  <0> d          -2.769   0.406  -1.375  0.00  0.00    -0.052 C 
ATOM      9  H4  <0> d          -1.943  -0.266  -1.651  0.00  0.00     0.030 H 
ATOM     10  H5  <0> d          -2.833   1.227  -2.104  0.00  0.00     0.030 H 
ATOM     11  H6  <0> d          -3.714  -0.157  -1.373  0.00  0.00     0.030 H 
ENDBRANCH   1   8
BRANCH   1  12
ATOM     12  C5  <0> d          -1.220   1.751   0.017  0.00  0.00     0.073 A 
ATOM     13  N3  <0> d          -1.238   3.072   0.029  0.00  0.00    -0.261 NA
ATOM     14  C8  <0> d          -0.103   3.749   0.022  0.00  0.00     0.019 A 
ATOM     15  C7  <0> d           1.105   3.073   0.008  0.00  0.00     0.019 A 
ATOM     16  H9  <0> d          -0.117   4.829   0.027  0.00  0.00     0.117 H 
ATOM     17  N2  <0> d           1.123   1.752   0.001  0.00  0.00    -0.270 NA
ATOM     18  H8  <0> d           2.032   3.626   0.002  0.00  0.00     0.117 H 
ATOM     19  C6  <0> d          -0.013   1.076   0.008  0.00  0.00     0.027 A 
ATOM     20  H7  <0> d           0.002  -0.004   0.002  0.00  0.00     0.117 H 
ENDBRANCH   1  12
TORSDOF 3
