REMARK  5 active torsions:
REMARK  status: ('A' for Active; 'I' for Inactive)
REMARK    1  A    between atoms: C1_1  and  C2_2 
REMARK    2  A    between atoms: C4_4  and  O2_11 
REMARK    3  A    between atoms: C5_5  and  C9_10 
REMARK    4  A    between atoms: C6_6  and  C8_9 
REMARK    5  A    between atoms: C7_7  and  O1_8 
ROOT
ATOM      1  C2  <0> d           0.002  -0.004   0.002  0.00  0.00    -0.026 A 
ATOM      2  C3  <0> d          -0.017   1.377   0.010  0.00  0.00    -0.042 A 
ATOM      3  C4  <0> d           1.175   2.087   0.002  0.00  0.00     0.072 A 
ATOM      4  C5  <0> d           2.385   1.410  -0.014  0.00  0.00    -0.020 A 
ATOM      5  C6  <0> d           2.404   0.029  -0.021  0.00  0.00    -0.020 A 
ATOM      6  C7  <0> d           1.212  -0.681  -0.013  0.00  0.00     0.078 A 
ATOM      7  H4  <0> d          -0.959   1.905   0.017  0.00  0.00     0.088 H 
ENDROOT
BRANCH   1   8
ATOM      8  C1  <0> d          -1.293  -0.775   0.010  0.00  0.00    -0.049 C 
ATOM      9  H1  <0> d          -1.614  -0.956  -1.016  0.00  0.00     0.033 H 
ATOM     10  H2  <0> d          -1.145  -1.729   0.517  0.00  0.00     0.033 H 
ATOM     11  H3  <0> d          -2.055  -0.199   0.534  0.00  0.00     0.033 H 
ENDBRANCH   1   8
BRANCH   6  12
ATOM     12  O1  <0> d           1.231  -2.041  -0.020  0.00  0.00    -0.360 OA
ATOM     13  H5  <0> d           1.228  -2.429  -0.906  0.00  0.00     0.217 HD
ENDBRANCH   6  12
BRANCH   5  14
ATOM     14  C8  <0> d           3.719  -0.707  -0.037  0.00  0.00    -0.048 C 
ATOM     15  H6  <0> d           4.027  -0.879  -1.068  0.00  0.00     0.033 H 
ATOM     16  H7  <0> d           4.476  -0.110   0.473  0.00  0.00     0.033 H 
ATOM     17  H8  <0> d           3.607  -1.663   0.473  0.00  0.00     0.033 H 
ENDBRANCH   5  14
BRANCH   3  18
ATOM     18  O2  <0> d           1.156   3.447   0.009  0.00  0.00    -0.360 OA
ATOM     19  H12 <0> d           1.159   3.836   0.894  0.00  0.00     0.217 HD
ENDBRANCH   3  18
BRANCH   4  20
ATOM     20  C9  <0> d           3.680   2.181  -0.023  0.00  0.00    -0.048 C 
ATOM     21  H9  <0> d           3.982   2.372  -1.052  0.00  0.00     0.033 H 
ATOM     22  H10 <0> d           3.542   3.129   0.497  0.00  0.00     0.033 H 
ATOM     23  H11 <0> d           4.452   1.600   0.481  0.00  0.00     0.033 H 
ENDBRANCH   4  20
TORSDOF 5
