REMARK  3 active torsions:
REMARK  status: ('A' for Active; 'I' for Inactive)
REMARK    1  A    between atoms: C1_1  and  O1_2 
REMARK    2  A    between atoms: O1_2  and  C2_3 
REMARK    3  A    between atoms: C4_5  and  N3_9 
ROOT
ATOM      1  C2  <0> d          -3.608   1.665   0.028  0.00  0.00     0.168 A 
ATOM      2  C3  <0> d          -2.423   0.940   0.019  0.00  0.00     0.012 A 
ATOM      3  C4  <0> d          -1.221   1.643   0.017  0.00  0.00     0.126 A 
ATOM      4  N1  <0> d          -1.250   2.974   0.030  0.00  0.00    -0.225 NA
ATOM      5  C5  <0> d          -2.396   3.623   0.033  0.00  0.00     0.091 A 
ATOM      6  N2  <0> d          -3.554   2.994   0.035  0.00  0.00    -0.218 NA
ATOM      7  H4  <0> d          -2.434  -0.140   0.013  0.00  0.00     0.096 H 
ATOM      8  H5  <0> d          -2.387   4.703   0.039  0.00  0.00     0.146 H 
ENDROOT
BRANCH   1   9
ATOM      9  O1  <0> d          -4.804   1.026   0.031  0.00  0.00    -0.339 OA
BRANCH   9  10
ATOM     10  C1  <0> d          -5.976   1.844   0.041  0.00  0.00     0.012 C 
ATOM     11  H1  <0> d          -6.862   1.209   0.042  0.00  0.00     0.067 H 
ATOM     12  H2  <0> d          -5.976   2.469   0.934  0.00  0.00     0.067 H 
ATOM     13  H3  <0> d          -5.984   2.478  -0.846  0.00  0.00     0.067 H 
ENDBRANCH   9  10
ENDBRANCH   1   9
BRANCH   3  14
ATOM     14  N3  <0> d          -0.011   0.966   0.007  0.00  0.00    -0.384 N 
ATOM     15  H6  <0> d           0.002  -0.004   0.002  0.00  0.00     0.157 HD
ATOM     16  H7  <0> d           0.822   1.462   0.002  0.00  0.00     0.157 HD
ENDBRANCH   3  14
TORSDOF 3
