REMARK  3 active torsions:
REMARK  status: ('A' for Active; 'I' for Inactive)
REMARK    1  A    between atoms: C1_1  and  O1_2 
REMARK    2  A    between atoms: O1_2  and  C2_3 
REMARK    3  A    between atoms: C2_3  and  C3_5 
ROOT
ATOM      1  C3  <0> d          -1.244  -2.135   0.003  0.00  0.00     0.037 C 
ATOM      2  H1  <0> d          -0.778  -2.531  -0.900  0.00  0.00     0.056 H 
ATOM      3  C4  <0> d          -0.561  -2.713   1.266  0.00  0.00    -0.046 C 
ATOM      4  C5  <0> d          -1.712  -3.482   1.990  0.00  0.00    -0.037 C 
ATOM      5  H2  <0> d          -1.409  -4.201   2.750  0.00  0.00     0.046 H 
ATOM      6  C6  <0> d          -2.495  -4.052   0.751  0.00  0.00    -0.051 C 
ATOM      7  C7  <0> d          -2.721  -2.628   0.123  0.00  0.00    -0.025 C 
ATOM      8  H3  <0> d          -3.320  -2.585  -0.786  0.00  0.00     0.047 H 
ATOM      9  C8  <0> d          -3.263  -1.885   1.350  0.00  0.00    -0.101 C 
ATOM     10  C9  <0> d          -2.682  -2.376   2.426  0.00  0.00    -0.102 C 
ATOM     11  H7  <0> d           0.242  -3.397   0.989  0.00  0.00     0.035 H 
ATOM     12  H8  <0> d          -0.178  -1.910   1.896  0.00  0.00     0.035 H 
ATOM     13  H9  <0> d          -1.875  -4.692   0.124  0.00  0.00     0.035 H 
ATOM     14  H10 <0> d          -3.429  -4.538   1.035  0.00  0.00     0.035 H 
ATOM     15  H11 <0> d          -3.997  -1.093   1.335  0.00  0.00     0.077 H 
ATOM     16  H12 <0> d          -2.858  -2.055   3.442  0.00  0.00     0.076 H 
ENDROOT
BRANCH   1  17
ATOM     17  C2  <0> d          -1.185  -0.630   0.010  0.00  0.00     0.263 C 
ATOM     18  O2  <0> d          -2.208   0.015   0.023  0.00  0.00    -0.265 OA
BRANCH  17  19
ATOM     19  O1  <0> d           0.002  -0.004   0.002  0.00  0.00    -0.326 OA
BRANCH  19  20
ATOM     20  C1  <0> d          -0.018   1.448   0.010  0.00  0.00     0.013 C 
ATOM     21  H4  <0> d           1.005   1.825   0.002  0.00  0.00     0.067 H 
ATOM     22  H5  <0> d          -0.545   1.809  -0.873  0.00  0.00     0.067 H 
ATOM     23  H6  <0> d          -0.528   1.799   0.907  0.00  0.00     0.067 H 
ENDBRANCH  19  20
ENDBRANCH  17  19
ENDBRANCH   1  17
TORSDOF 3
