REMARK  4 active torsions:
REMARK  status: ('A' for Active; 'I' for Inactive)
REMARK    1  A    between atoms: C1_1  and  C2_2 
REMARK    2  A    between atoms: C5_5  and  C6_8 
REMARK    3  A    between atoms: C6_8  and  O2_10 
REMARK    4  A    between atoms: O2_10  and  C7_11 
ROOT
ATOM      1  C2  <0> d           0.002  -0.004   0.002  0.00  0.00     0.053 A 
ATOM      2  C3  <0> d           0.006  -0.690  -1.202  0.00  0.00    -0.055 A 
ATOM      3  C4  <0> d           0.025  -2.077  -1.164  0.00  0.00    -0.045 A 
ATOM      4  C5  <0> d           0.040  -2.697   0.088  0.00  0.00     0.154 A 
ATOM      5  N1  <0> d           0.035  -1.953   1.189  0.00  0.00    -0.144 NA
ATOM      6  N2  <0> d           0.022  -0.670   1.143  0.00  0.00    -0.155 NA
ATOM      7  H4  <0> d          -0.006  -0.160  -2.143  0.00  0.00     0.086 H 
ATOM      8  H5  <0> d           0.029  -2.659  -2.074  0.00  0.00     0.087 H 
ENDROOT
BRANCH   4   9
ATOM      9  C6  <0> d           0.060  -4.174   0.188  0.00  0.00     0.313 C 
ATOM     10  O1  <0> d           0.065  -4.850  -0.820  0.00  0.00    -0.257 OA
BRANCH   9  11
ATOM     11  O2  <0> d           0.075  -4.767   1.397  0.00  0.00    -0.321 OA
BRANCH  11  12
ATOM     12  C7  <0> d           0.094  -6.196   1.419  0.00  0.00     0.013 C 
ATOM     13  H6  <0> d           0.104  -6.543   2.452  0.00  0.00     0.067 H 
ATOM     14  H7  <0> d          -0.793  -6.579   0.915  0.00  0.00     0.067 H 
ATOM     15  H8  <0> d           0.987  -6.554   0.906  0.00  0.00     0.067 H 
ENDBRANCH  11  12
ENDBRANCH   9  11
ENDBRANCH   4   9
BRANCH   1  16
ATOM     16  C1  <0> d          -0.018   1.503   0.010  0.00  0.00    -0.034 C 
ATOM     17  H1  <0> d           1.004   1.880   0.003  0.00  0.00     0.035 H 
ATOM     18  H2  <0> d          -0.545   1.864  -0.873  0.00  0.00     0.035 H 
ATOM     19  H3  <0> d          -0.529   1.854   0.907  0.00  0.00     0.035 H 
ENDBRANCH   1  16
TORSDOF 4
