REMARK  1 active torsions:
REMARK  status: ('A' for Active; 'I' for Inactive)
REMARK    1  A    between atoms: C4_5  and  C5_6 
ROOT
ATOM      1  C5  <0> d           3.792  -0.394  -0.037  0.00  0.00     0.044 C 
ATOM      2  C6  <0> d           4.244  -0.539  -1.430  0.00  0.00     0.064 C 
ATOM      3  N1  <0> d           4.593  -0.651  -2.505  0.00  0.00    -0.197 NA
ATOM      4  H3  <0> d           4.425   0.342   0.480  0.00  0.00     0.063 H 
ATOM      5  H4  <0> d           3.865  -1.364   0.475  0.00  0.00     0.063 H 
ENDROOT
BRANCH   1   6
ATOM      6  C4  <0> d           2.360   0.077  -0.020  0.00  0.00    -0.003 A 
ATOM      7  C1  <0> d           1.221  -0.657  -0.013  0.00  0.00    -0.067 A 
ATOM      8  C2  <0> d           0.002  -0.004   0.002  0.00  0.00    -0.054 A 
ATOM      9  H1  <0> d           1.264  -1.736  -0.019  0.00  0.00     0.085 H 
ATOM     10  C3  <0> d          -0.016   1.352   0.009  0.00  0.00     0.075 A 
ATOM     11  H2  <0> d          -0.921  -0.565   0.008  0.00  0.00     0.086 H 
ATOM     12  S1  <0> d           1.725   1.745  -0.005  0.00  0.00    -0.082 SA
ATOM     13 Cl1  <0> d          -1.379   2.427   0.022  0.00  0.00    -0.076 Cl
ENDBRANCH   1   6
TORSDOF 1
