REMARK  2 active torsions:
REMARK  status: ('A' for Active; 'I' for Inactive)
REMARK    1  A    between atoms: C1_1  and  C2_2 
REMARK    2  A    between atoms: C5_6  and  C6_8 
ROOT
ATOM      1  C2  <0> d           0.017  -1.956  -1.210  0.00  0.00     0.054 A 
ATOM      2  C3  <0> d           0.038  -2.683  -0.013  0.00  0.00     0.086 A 
ATOM      3  C4  <0> d           0.040  -1.969   1.192  0.00  0.00     0.026 A 
ATOM      4  N1  <0> d           0.022  -0.648   1.152  0.00  0.00    -0.244 NA
ATOM      5  C5  <0> d           0.002  -0.004   0.002  0.00  0.00     0.122 A 
ATOM      6  N2  <0> d          -0.006  -0.636  -1.155  0.00  0.00    -0.237 NA
ATOM      7  C7  <0> d           0.057  -4.114  -0.021  0.00  0.00     0.103 C 
ATOM      8  N3  <0> d           0.072  -5.250  -0.027  0.00  0.00    -0.191 NA
ATOM      9  H4  <0> d           0.057  -2.490   2.138  0.00  0.00     0.117 H 
ENDROOT
BRANCH   1  10
ATOM     10  C1  <0> d           0.015  -2.668  -2.538  0.00  0.00    -0.034 C 
ATOM     11  H1  <0> d          -1.013  -2.854  -2.848  0.00  0.00     0.035 H 
ATOM     12  H2  <0> d           0.513  -2.049  -3.283  0.00  0.00     0.035 H 
ATOM     13  H3  <0> d           0.543  -3.617  -2.442  0.00  0.00     0.035 H 
ENDBRANCH   1  10
BRANCH   5  14
ATOM     14  C6  <0> d          -0.018   1.503   0.010  0.00  0.00    -0.019 C 
ATOM     15  H5  <0> d           1.004   1.880   0.003  0.00  0.00     0.037 H 
ATOM     16  H6  <0> d          -0.545   1.864  -0.873  0.00  0.00     0.037 H 
ATOM     17  H7  <0> d          -0.529   1.854   0.907  0.00  0.00     0.037 H 
ENDBRANCH   5  14
TORSDOF 2
