REMARK  3 active torsions:
REMARK  status: ('A' for Active; 'I' for Inactive)
REMARK    1  A    between atoms: C1_1  and  C2_2 
REMARK    2  A    between atoms: C2_2  and  O1_3 
REMARK    3  A    between atoms: O1_3  and  C3_4 
ROOT
ATOM      1  C3  <0> d           0.002  -0.004   0.002  0.00  0.00     0.109 A 
ATOM      2  C4  <0> d           1.337  -0.267  -0.012  0.00  0.00    -0.043 A 
ATOM      3  C5  <0> d           2.226   0.794  -0.015  0.00  0.00    -0.073 A 
ATOM      4  C6  <0> d           1.741   2.058  -0.004  0.00  0.00    -0.042 A 
ATOM      5  S1  <0> d          -0.022   1.781   0.012  0.00  0.00    -0.077 SA
ATOM      6  H6  <0> d           1.696  -1.285  -0.021  0.00  0.00     0.088 H 
ATOM      7  H7  <0> d           3.291   0.615  -0.026  0.00  0.00     0.084 H 
ATOM      8  H8  <0> d           2.282   2.993  -0.004  0.00  0.00     0.095 H 
ENDROOT
BRANCH   1   9
ATOM      9  O1  <0> d          -1.042  -0.874   0.007  0.00  0.00    -0.344 OA
BRANCH   9  10
ATOM     10  C2  <0> d          -2.355  -0.312   0.022  0.00  0.00     0.023 C 
ATOM     11  H4  <0> d          -2.479   0.298   0.917  0.00  0.00     0.074 H 
ATOM     12  H5  <0> d          -2.495   0.309  -0.863  0.00  0.00     0.074 H 
BRANCH  10  13
ATOM     13  C1  <0> d          -3.392  -1.437   0.025  0.00  0.00    -0.056 C 
ATOM     14  H1  <0> d          -4.394  -1.008   0.037  0.00  0.00     0.030 H 
ATOM     15  H2  <0> d          -3.268  -2.047  -0.870  0.00  0.00     0.030 H 
ATOM     16  H3  <0> d          -3.252  -2.058   0.910  0.00  0.00     0.030 H 
ENDBRANCH  10  13
ENDBRANCH   9  10
ENDBRANCH   1   9
TORSDOF 3
