REMARK  1 active torsions:
REMARK  status: ('A' for Active; 'I' for Inactive)
REMARK    1  A    between atoms: C6_8  and  N3_11 
ROOT
ATOM      1  C1  <0> d          -0.018   1.460   0.010  0.00  0.00    -0.054 A 
ATOM      2  C2  <0> d           1.261   1.867   0.000  0.00  0.00    -0.020 A 
ATOM      3  N1  <0> d           2.096   0.783  -0.014  0.00  0.00    -0.350 N 
ATOM      4  H1  <0> d           3.066   0.827  -0.022  0.00  0.00     0.166 HD
ATOM      5  C3  <0> d           1.359  -0.379  -0.013  0.00  0.00     0.137 A 
ATOM      6  C4  <0> d           0.002  -0.004   0.002  0.00  0.00     0.013 A 
ATOM      7  C5  <0> d          -0.985  -0.992   0.006  0.00  0.00    -0.043 A 
ATOM      8  C6  <0> d          -0.579  -2.319  -0.005  0.00  0.00     0.044 A 
ATOM      9  C7  <0> d           0.782  -2.614  -0.019  0.00  0.00     0.030 A 
ATOM     10  N2  <0> d           1.691  -1.663  -0.024  0.00  0.00    -0.240 NA
ATOM     11  H2  <0> d          -0.894   2.091   0.026  0.00  0.00     0.087 H 
ATOM     12  H3  <0> d           1.583   2.898   0.002  0.00  0.00     0.111 H 
ATOM     13  H4  <0> d          -2.033  -0.731   0.018  0.00  0.00     0.088 H 
ATOM     14  H5  <0> d           1.098  -3.647  -0.028  0.00  0.00     0.118 H 
ENDROOT
BRANCH   8  15
ATOM     15  N3  <0> d          -1.526  -3.350  -0.001  0.00  0.00    -0.398 N 
ATOM     16  H6  <0> d          -2.473  -3.138   0.010  0.00  0.00     0.156 HD
ATOM     17  H7  <0> d          -1.236  -4.275  -0.009  0.00  0.00     0.156 HD
ENDBRANCH   8  15
TORSDOF 1
