REMARK  3 active torsions:
REMARK  status: ('A' for Active; 'I' for Inactive)
REMARK    1  A    between atoms: C1_1  and  C2_2 
REMARK    2  A    between atoms: C3_3  and  N1_8 
REMARK       I    between atoms: N1_8  and  C8_9 
REMARK    3  A    between atoms: C8_9  and  C9_11 
ROOT
ATOM      1  C2  <0> d           1.254  -0.522  -0.251  0.00  0.00    -0.061 C 
ATOM      2  C3  <0> d           0.075   0.014  -0.099  0.00  0.00     0.014 C 
ATOM      3  C4  <0> d          -1.200  -0.775  -0.016  0.00  0.00    -0.026 C 
ATOM      4  C5  <0> d          -0.979  -2.189  -0.559  0.00  0.00    -0.060 C 
ATOM      5  C6  <0> d           0.270  -2.775   0.113  0.00  0.00    -0.061 C 
ATOM      6  C7  <0> d           1.493  -1.998  -0.377  0.00  0.00    -0.043 C 
ATOM      7  H4  <0> d          -1.523  -0.830   1.023  0.00  0.00     0.042 H 
ATOM      8  H5  <0> d          -1.970  -0.279  -0.606  0.00  0.00     0.042 H 
ATOM      9  H6  <0> d          -0.830  -2.152  -1.639  0.00  0.00     0.033 H 
ATOM     10  H7  <0> d          -1.844  -2.811  -0.330  0.00  0.00     0.033 H 
ATOM     11  H8  <0> d           0.371  -3.826  -0.156  0.00  0.00     0.033 H 
ATOM     12  H9  <0> d           0.183  -2.677   1.195  0.00  0.00     0.033 H 
ATOM     13  H10 <0> d           1.683  -2.245  -1.422  0.00  0.00     0.039 H 
ATOM     14  H11 <0> d           2.360  -2.277   0.223  0.00  0.00     0.039 H 
ENDROOT
BRANCH   2  15
ATOM     15  N1  <0> d          -0.006   1.400  -0.003  0.00  0.00    -0.331 N 
ATOM     16  C8  <0> d          -0.569   1.969   1.082  0.00  0.00     0.217 C 
ATOM     17  O1  <0> d          -0.922   1.278   2.014  0.00  0.00    -0.274 OA
ATOM     18  H12 <0> d           0.346   1.957  -0.715  0.00  0.00     0.168 HD
BRANCH  16  19
ATOM     19  C9  <0> d          -0.760   3.463   1.136  0.00  0.00    -0.003 C 
ATOM     20  H13 <0> d          -0.386   3.910   0.215  0.00  0.00     0.040 H 
ATOM     21  H14 <0> d          -1.821   3.690   1.245  0.00  0.00     0.040 H 
ATOM     22  H15 <0> d          -0.212   3.868   1.986  0.00  0.00     0.040 H 
ENDBRANCH  16  19
ENDBRANCH   2  15
BRANCH   1  23
ATOM     23  C1  <0> d           2.448   0.396  -0.301  0.00  0.00    -0.053 C 
ATOM     24  H1  <0> d           2.128   1.419  -0.102  0.00  0.00     0.033 H 
ATOM     25  H2  <0> d           3.174   0.089   0.452  0.00  0.00     0.033 H 
ATOM     26  H3  <0> d           2.905   0.344  -1.289  0.00  0.00     0.033 H 
ENDBRANCH   1  23
TORSDOF 3
