REMARK  4 active torsions:
REMARK  status: ('A' for Active; 'I' for Inactive)
REMARK    1  A    between atoms: C1_1  and  C2_2 
REMARK    2  A    between atoms: C2_2  and  C3_3 
REMARK    3  A    between atoms: C2_2  and  N1_4 
REMARK    4  A    between atoms: C5_7  and  N4_9 
ROOT
ATOM      1  C2  <0> d          -1.663   4.209   0.038  0.00  0.00     0.046 C 
ATOM      2  H4  <0> d          -1.092   5.137   0.038  0.00  0.00     0.077 H 
ENDROOT
BRANCH   1   3
ATOM      3  C1  <0> d          -2.556   4.158  -1.203  0.00  0.00    -0.054 C 
ATOM      4  H1  <0> d          -1.936   4.203  -2.099  0.00  0.00     0.030 H 
ATOM      5  H2  <0> d          -3.127   3.230  -1.202  0.00  0.00     0.030 H 
ATOM      6  H3  <0> d          -3.241   5.006  -1.193  0.00  0.00     0.030 H 
ENDBRANCH   1   3
BRANCH   1   7
ATOM      7  C3  <0> d          -2.533   4.146   1.295  0.00  0.00    -0.054 C 
ATOM      8  H5  <0> d          -1.897   4.182   2.180  0.00  0.00     0.030 H 
ATOM      9  H6  <0> d          -3.218   4.994   1.306  0.00  0.00     0.030 H 
ATOM     10  H7  <0> d          -3.104   3.218   1.296  0.00  0.00     0.030 H 
ENDBRANCH   1   7
BRANCH   1  11
ATOM     11  N1  <0> d          -0.742   3.069   0.024  0.00  0.00    -0.183 N 
ATOM     12  N3  <0> d           0.657   3.149   0.012  0.00  0.00    -0.136 NA
ATOM     13  C5  <0> d           1.110   1.911   0.002  0.00  0.00     0.162 A 
ATOM     14  C4  <0> d          -0.013   1.076   0.008  0.00  0.00     0.069 A 
ATOM     15  N2  <0> d          -1.084   1.829   0.017  0.00  0.00    -0.163 NA
ATOM     16  H8  <0> d           0.002  -0.004   0.002  0.00  0.00     0.123 H 
BRANCH  13  17
ATOM     17  N4  <0> d           2.452   1.510  -0.013  0.00  0.00    -0.381 N 
ATOM     18  H9  <0> d           2.676   0.567  -0.019  0.00  0.00     0.157 HD
ATOM     19  H10 <0> d           3.157   2.176  -0.017  0.00  0.00     0.157 HD
ENDBRANCH  13  17
ENDBRANCH   1  11
TORSDOF 4
