REMARK  5 active torsions:
REMARK  status: ('A' for Active; 'I' for Inactive)
REMARK    1  A    between atoms: C1_1  and  C2_2 
REMARK    2  A    between atoms: C2_2  and  C3_3 
REMARK    3  A    between atoms: C2_2  and  O1_4 
REMARK    4  A    between atoms: O1_4  and  C4_5 
REMARK    5  A    between atoms: C6_7  and  N3_10 
ROOT
ATOM      1  O1  <0> d           0.671  -0.465  -1.174  0.00  0.00    -0.330 OA
ENDROOT
BRANCH   1   2
ATOM      2  C2  <0> d           0.002  -0.004   0.002  0.00  0.00     0.040 C 
ATOM      3  H4  <0> d           0.529  -0.365   0.885  0.00  0.00     0.083 H 
BRANCH   2   4
ATOM      4  C1  <0> d          -0.019   1.526   0.010  0.00  0.00    -0.052 C 
ATOM      5  H1  <0> d           1.004   1.903   0.003  0.00  0.00     0.030 H 
ATOM      6  H2  <0> d          -0.546   1.887  -0.873  0.00  0.00     0.030 H 
ATOM      7  H3  <0> d          -0.529   1.877   0.907  0.00  0.00     0.030 H 
ENDBRANCH   2   4
BRANCH   2   8
ATOM      8  C3  <0> d          -1.433  -0.534   0.013  0.00  0.00    -0.052 C 
ATOM      9  H5  <0> d          -1.960  -0.173  -0.870  0.00  0.00     0.030 H 
ATOM     10  H6  <0> d          -1.419  -1.623   0.007  0.00  0.00     0.030 H 
ATOM     11  H7  <0> d          -1.944  -0.182   0.910  0.00  0.00     0.030 H 
ENDBRANCH   2   8
ENDBRANCH   1   2
BRANCH   1  12
ATOM     12  C4  <0> d           2.013  -0.653  -1.086  0.00  0.00     0.162 A 
ATOM     13  C5  <0> d           2.828  -1.083  -2.083  0.00  0.00     0.013 A 
ATOM     14  H8  <0> d           2.525  -1.338  -3.088  0.00  0.00     0.096 H 
ATOM     15  C6  <0> d           4.135  -1.139  -1.575  0.00  0.00     0.145 A 
ATOM     16  N1  <0> d           4.102  -0.756  -0.320  0.00  0.00    -0.155 NA
ATOM     17  N2  <0> d           2.777  -0.439   0.008  0.00  0.00    -0.255 N 
ATOM     18  H11 <0> d           2.463  -0.124   0.870  0.00  0.00     0.191 HD
BRANCH  15  19
ATOM     19  N3  <0> d           5.276  -1.534  -2.283  0.00  0.00    -0.383 N 
ATOM     20  H9  <0> d           5.202  -1.802  -3.212  0.00  0.00     0.157 HD
ATOM     21  H10 <0> d           6.141  -1.540  -1.844  0.00  0.00     0.157 HD
ENDBRANCH  15  19
ENDBRANCH   1  12
TORSDOF 5
