REMARK  3 active torsions:
REMARK  status: ('A' for Active; 'I' for Inactive)
REMARK    1  A    between atoms: C1_1  and  O1_2 
REMARK    2  A    between atoms: O1_2  and  C2_3 
REMARK    3  A    between atoms: C2_3  and  C3_5 
ROOT
ATOM      1  C3  <0> d           1.518   1.476  -0.004  0.00  0.00     0.136 C 
ATOM      2  C4  <0> d          -0.019   1.534   0.011  0.00  0.00    -0.037 C 
ATOM      3  C5  <0> d           0.002  -0.004   0.002  0.00  0.00    -0.061 C 
ATOM      4  C6  <0> d           1.381   0.097  -0.670  0.00  0.00    -0.037 C 
ATOM      5  C7  <0> d           2.119   1.426   1.338  0.00  0.00     0.079 C 
ATOM      6  N1  <0> d           2.583   1.387   2.374  0.00  0.00    -0.196 NA
ATOM      7  H4  <0> d          -0.448   1.969  -0.892  0.00  0.00     0.036 H 
ATOM      8  H5  <0> d          -0.431   1.960   0.925  0.00  0.00     0.036 H 
ATOM      9  H6  <0> d           0.033  -0.446   0.998  0.00  0.00     0.033 H 
ATOM     10  H7  <0> d          -0.763  -0.448  -0.635  0.00  0.00     0.033 H 
ATOM     11  H8  <0> d           2.100  -0.637  -0.305  0.00  0.00     0.036 H 
ATOM     12  H9  <0> d           1.335   0.140  -1.758  0.00  0.00     0.036 H 
ENDROOT
BRANCH   1  13
ATOM     13  C2  <0> d           2.152   2.515  -0.893  0.00  0.00     0.281 C 
ATOM     14  O2  <0> d           1.458   3.290  -1.508  0.00  0.00    -0.263 OA
BRANCH  13  15
ATOM     15  O1  <0> d           3.489   2.580  -1.001  0.00  0.00    -0.325 OA
BRANCH  15  16
ATOM     16  C1  <0> d           4.030   3.606  -1.875  0.00  0.00     0.013 C 
ATOM     17  H1  <0> d           5.118   3.548  -1.872  0.00  0.00     0.067 H 
ATOM     18  H2  <0> d           3.661   3.451  -2.889  0.00  0.00     0.067 H 
ATOM     19  H3  <0> d           3.717   4.588  -1.520  0.00  0.00     0.067 H 
ENDBRANCH  15  16
ENDBRANCH  13  15
ENDBRANCH   1  13
TORSDOF 3
