REMARK  1 active torsions:
REMARK  status: ('A' for Active; 'I' for Inactive)
REMARK    1  A    between atoms: C5_6  and  C6_7 
ROOT
ATOM      1  C1  <0> d           1.198  -0.702  -0.013  0.00  0.00    -0.049 A 
ATOM      2  C2  <0> d           0.002  -0.004   0.002  0.00  0.00     0.005 A 
ATOM      3  N1  <0> d          -0.016   1.311   0.009  0.00  0.00    -0.250 NA
ATOM      4  C3  <0> d           1.101   2.029   0.002  0.00  0.00     0.137 A 
ATOM      5  C4  <0> d           2.347   1.405  -0.013  0.00  0.00    -0.028 A 
ATOM      6  C5  <0> d           2.403   0.008  -0.020  0.00  0.00     0.045 A 
ATOM      7  C7  <0> d           1.025   3.459   0.010  0.00  0.00     0.119 C 
ATOM      8  N2  <0> d           0.964   4.593   0.017  0.00  0.00    -0.190 NA
ATOM      9  H1  <0> d           1.200  -1.782  -0.018  0.00  0.00     0.087 H 
ATOM     10  H2  <0> d          -0.931  -0.548   0.008  0.00  0.00     0.114 H 
ATOM     11  H3  <0> d           3.254   1.990  -0.018  0.00  0.00     0.089 H 
ENDROOT
BRANCH   6  12
ATOM     12  C6  <0> d           3.702  -0.701  -0.036  0.00  0.00     0.209 C 
ATOM     13  O1  <0> d           4.739  -0.068  -0.042  0.00  0.00    -0.644 OA
ATOM     14  O2  <0> d           3.735  -2.047  -0.042  0.00  0.00    -0.644 OA
ENDBRANCH   6  12
TORSDOF 1
