REMARK  3 active torsions:
REMARK  status: ('A' for Active; 'I' for Inactive)
REMARK    1  A    between atoms: C1_1  and  C2_2 
REMARK       I    between atoms: C2_2  and  N1_4 
REMARK    2  A    between atoms: N1_4  and  C3_5 
REMARK    3  A    between atoms: C6_8  and  N2_11 
ROOT
ATOM      1  C3  <0> d          -0.071  -2.071  -1.121  0.00  0.00     0.034 A 
ATOM      2  C4  <0> d          -0.152  -2.720   0.104  0.00  0.00    -0.055 A 
ATOM      3  C5  <0> d          -0.222  -4.098   0.151  0.00  0.00    -0.056 A 
ATOM      4  C6  <0> d          -0.212  -4.835  -1.026  0.00  0.00     0.025 A 
ATOM      5  C7  <0> d          -0.131  -4.185  -2.251  0.00  0.00    -0.056 A 
ATOM      6  C8  <0> d          -0.066  -2.807  -2.298  0.00  0.00    -0.055 A 
ATOM      7  H5  <0> d          -0.159  -2.147   1.019  0.00  0.00     0.087 H 
ATOM      8  H6  <0> d          -0.285  -4.603   1.104  0.00  0.00     0.087 H 
ATOM      9  H7  <0> d          -0.123  -4.758  -3.166  0.00  0.00     0.087 H 
ATOM     10  H8  <0> d          -0.008  -2.301  -3.251  0.00  0.00     0.087 H 
ENDROOT
BRANCH   1  11
ATOM     11  N1  <0> d           0.000  -0.672  -1.169  0.00  0.00    -0.328 N 
ATOM     12  C2  <0> d          -0.604  -0.000  -2.169  0.00  0.00     0.218 C 
ATOM     13  O1  <0> d          -1.137  -0.609  -3.073  0.00  0.00    -0.274 OA
ATOM     14  H4  <0> d           0.484  -0.187  -0.482  0.00  0.00     0.169 HD
BRANCH  12  15
ATOM     15  C1  <0> d          -0.617   1.507  -2.165  0.00  0.00    -0.003 C 
ATOM     16  H1  <0> d          -1.502   1.861  -1.638  0.00  0.00     0.040 H 
ATOM     17  H2  <0> d           0.278   1.876  -1.663  0.00  0.00     0.040 H 
ATOM     18  H3  <0> d          -0.635   1.873  -3.192  0.00  0.00     0.040 H 
ENDBRANCH  12  15
ENDBRANCH   1  11
BRANCH   4  19
ATOM     19  N2  <0> d          -0.283  -6.231  -0.978  0.00  0.00    -0.399 N 
ATOM     20  H9  <0> d          -0.339  -6.684  -0.122  0.00  0.00     0.156 HD
ATOM     21  H10 <0> d          -0.276  -6.745  -1.800  0.00  0.00     0.156 HD
ENDBRANCH   4  19
TORSDOF 3
