REMARK  4 active torsions:
REMARK  status: ('A' for Active; 'I' for Inactive)
REMARK    1  A    between atoms: C1_1  and  C2_2 
REMARK    2  A    between atoms: C3_3  and  C5_7 
REMARK    3  A    between atoms: C5_7  and  O3_9 
REMARK    4  A    between atoms: O3_9  and  C6_10 
ROOT
ATOM      1  C2  <0> d           0.002  -0.004   0.002  0.00  0.00     0.092 A 
ATOM      2  C3  <0> d          -1.093  -0.822   0.003  0.00  0.00     0.090 A 
ATOM      3  C4  <0> d          -0.593  -2.198  -0.007  0.00  0.00     0.047 A 
ATOM      4  N1  <0> d           0.706  -2.133  -0.013  0.00  0.00    -0.140 NA
ATOM      5  O1  <0> d           1.093  -0.774  -0.013  0.00  0.00    -0.217 OA
ATOM      6  H4  <0> d          -1.190  -3.097  -0.009  0.00  0.00     0.119 H 
ENDROOT
BRANCH   2   7
ATOM      7  C5  <0> d          -2.503  -0.400   0.012  0.00  0.00     0.297 C 
ATOM      8  O2  <0> d          -2.784   0.782   0.021  0.00  0.00    -0.259 OA
BRANCH   7   9
ATOM      9  O3  <0> d          -3.483  -1.325   0.011  0.00  0.00    -0.322 OA
BRANCH   9  10
ATOM     10  C6  <0> d          -4.829  -0.845   0.021  0.00  0.00     0.013 C 
ATOM     11  H5  <0> d          -5.003  -0.234  -0.865  0.00  0.00     0.067 H 
ATOM     12  H6  <0> d          -5.517  -1.691   0.019  0.00  0.00     0.067 H 
ATOM     13  H7  <0> d          -4.994  -0.244   0.915  0.00  0.00     0.067 H 
ENDBRANCH   9  10
ENDBRANCH   7   9
ENDBRANCH   2   7
BRANCH   1  14
ATOM     14  C1  <0> d          -0.018   1.503   0.010  0.00  0.00    -0.028 C 
ATOM     15  H1  <0> d           1.004   1.880   0.003  0.00  0.00     0.036 H 
ATOM     16  H2  <0> d          -0.545   1.864  -0.873  0.00  0.00     0.036 H 
ATOM     17  H3  <0> d          -0.529   1.854   0.907  0.00  0.00     0.036 H 
ENDBRANCH   1  14
TORSDOF 4
