REMARK  7 active torsions:
REMARK  status: ('A' for Active; 'I' for Inactive)
REMARK    1  A    between atoms: C1_1  and  C2_2 
REMARK    2  A    between atoms: C2_2  and  C3_3 
REMARK    3  A    between atoms: C3_3  and  C4_4 
REMARK    4  A    between atoms: C4_4  and  C5_5 
REMARK    5  A    between atoms: C4_4  and  O1_8 
REMARK    6  A    between atoms: C5_5  and  C6_6 
REMARK    7  A    between atoms: C6_6  and  C7_7 
ROOT
ATOM      1  C4  <0> d          -0.017   1.425   0.010  0.00  0.00     0.035 C 
ATOM      2  H8  <0> d           1.005   1.802   0.002  0.00  0.00     0.082 H 
ENDROOT
BRANCH   1   3
ATOM      3  C3  <0> d          -0.757   1.932  -1.230  0.00  0.00    -0.041 C 
ATOM      4  H6  <0> d          -1.750   1.484  -1.268  0.00  0.00     0.036 H 
ATOM      5  H7  <0> d          -0.850   3.017  -1.179  0.00  0.00     0.036 H 
BRANCH   3   6
ATOM      6  C2  <0> d           0.026   1.544  -2.485  0.00  0.00    -0.066 C 
ATOM      7  H4  <0> d           1.019   1.992  -2.446  0.00  0.00     0.032 H 
ATOM      8  H5  <0> d           0.119   0.459  -2.536  0.00  0.00     0.032 H 
BRANCH   6   9
ATOM      9  C1  <0> d          -0.714   2.051  -3.725  0.00  0.00    -0.076 C 
ATOM     10  H1  <0> d          -0.155   1.775  -4.620  0.00  0.00     0.027 H 
ATOM     11  H2  <0> d          -1.707   1.603  -3.764  0.00  0.00     0.027 H 
ATOM     12  H3  <0> d          -0.806   3.136  -3.675  0.00  0.00     0.027 H 
ENDBRANCH   6   9
ENDBRANCH   3   6
ENDBRANCH   1   3
BRANCH   1  13
ATOM     13  C5  <0> d          -0.733   1.918   1.269  0.00  0.00    -0.041 C 
ATOM     14  H9  <0> d          -0.827   3.004   1.232  0.00  0.00     0.036 H 
ATOM     15  H10 <0> d          -1.726   1.470   1.322  0.00  0.00     0.036 H 
BRANCH  13  16
ATOM     16  C6  <0> d           0.074   1.518   2.505  0.00  0.00    -0.066 C 
ATOM     17  H11 <0> d           0.167   0.432   2.542  0.00  0.00     0.032 H 
ATOM     18  H12 <0> d           1.066   1.966   2.452  0.00  0.00     0.032 H 
BRANCH  16  19
ATOM     19  C7  <0> d          -0.642   2.011   3.764  0.00  0.00    -0.076 C 
ATOM     20  H13 <0> d          -0.067   1.726   4.644  0.00  0.00     0.027 H 
ATOM     21  H14 <0> d          -0.736   3.096   3.727  0.00  0.00     0.027 H 
ATOM     22  H15 <0> d          -1.634   1.563   3.817  0.00  0.00     0.027 H 
ENDBRANCH  16  19
ENDBRANCH  13  16
ENDBRANCH   1  13
BRANCH   1  23
ATOM     23  O1  <0> d           0.002  -0.004   0.002  0.00  0.00    -0.396 OA
ATOM     24  H16 <0> d          -0.876  -0.409   0.008  0.00  0.00     0.210 HD
ENDBRANCH   1  23
TORSDOF 7
