REMARK  2 active torsions:
REMARK  status: ('A' for Active; 'I' for Inactive)
REMARK    1  A    between atoms: C1_1  and  C2_2 
REMARK    2  A    between atoms: N4_6  and  C3_7 
ROOT
ATOM      1  C2  <0> d           0.002  -0.004   0.002  0.00  0.00     0.143 A 
ATOM      2  N1  <0> d           0.022  -0.792   1.049  0.00  0.00    -0.114 NA
ATOM      3  N2  <0> d           0.035  -2.010   0.630  0.00  0.00    -0.023 NA
ATOM      4  N3  <0> d           0.023  -2.020  -0.657  0.00  0.00    -0.045 NA
ATOM      5  N4  <0> d          -0.003  -0.802  -1.082  0.00  0.00    -0.239 N 
ENDROOT
BRANCH   1   6
ATOM      6  C1  <0> d          -0.018   1.503   0.010  0.00  0.00    -0.018 C 
ATOM      7  H1  <0> d           1.004   1.880   0.003  0.00  0.00     0.038 H 
ATOM      8  H2  <0> d          -0.545   1.864  -0.873  0.00  0.00     0.038 H 
ATOM      9  H3  <0> d          -0.529   1.854   0.907  0.00  0.00     0.038 H 
ENDBRANCH   1   6
BRANCH   5  10
ATOM     10  C3  <0> d          -0.029  -0.369  -2.481  0.00  0.00     0.006 C 
ATOM     11  H4  <0> d           0.993  -0.247  -2.843  0.00  0.00     0.059 H 
ATOM     12  H5  <0> d          -0.541  -1.118  -3.084  0.00  0.00     0.059 H 
ATOM     13  H6  <0> d          -0.556   0.582  -2.558  0.00  0.00     0.059 H 
ENDBRANCH   5  10
TORSDOF 2
