REMARK  2 active torsions:
REMARK  status: ('A' for Active; 'I' for Inactive)
REMARK    1  A    between atoms: C1_1  and  C2_2 
REMARK    2  A    between atoms: C1_1  and  N1_6 
REMARK       I    between atoms: N1_6  and  C3_7 
REMARK       I    between atoms: C3_7  and  N2_9 
ROOT
ATOM      1  C1  <0> d           1.281  -0.719  -0.014  0.00  0.00     0.087 C 
ATOM      2  H1  <0> d           1.840  -0.443  -0.908  0.00  0.00     0.077 H 
ATOM      3  H2  <0> d           1.857  -0.453   0.872  0.00  0.00     0.077 H 
ENDROOT
BRANCH   1   4
ATOM      4  C2  <0> d           1.021  -2.227  -0.020  0.00  0.00     0.403 C 
ATOM      5  F1  <0> d           0.282  -2.569  -1.157  0.00  0.00    -0.169 F 
ATOM      6  F2  <0> d           2.242  -2.910  -0.035  0.00  0.00    -0.169 F 
ATOM      7  F3  <0> d           0.303  -2.581   1.128  0.00  0.00    -0.169 F 
ENDBRANCH   1   4
BRANCH   1   8
ATOM      8  N1  <0> d           0.002  -0.004   0.002  0.00  0.00    -0.335 N 
ATOM      9  C3  <0> d          -0.016   1.344   0.009  0.00  0.00     0.314 C 
ATOM     10  O1  <0> d           1.028   1.966   0.003  0.00  0.00    -0.248 OA
ATOM     11  N2  <0> d          -1.192   2.002   0.019  0.00  0.00    -0.352 N 
ATOM     12  H4  <0> d          -2.026   1.505   0.020  0.00  0.00     0.160 HD
ATOM     13  H5  <0> d          -1.206   2.971   0.024  0.00  0.00     0.160 HD
ATOM     14  H3  <0> d          -0.831  -0.500   0.007  0.00  0.00     0.164 HD
ENDBRANCH   1   8
TORSDOF 2
