REMARK  1 active torsions:
REMARK  status: ('A' for Active; 'I' for Inactive)
REMARK    1  A    between atoms: C4_5  and  C6_8 
ROOT
ATOM      1  C1  <0> d           2.470   5.120   0.005  0.00  0.00    -0.028 A 
ATOM      2  C2  <0> d           1.263   5.792   0.020  0.00  0.00     0.005 A 
ATOM      3  N1  <0> d           0.117   5.137   0.028  0.00  0.00    -0.272 NA
ATOM      4  C3  <0> d           0.065   3.822   0.016  0.00  0.00     0.021 A 
ATOM      5  C4  <0> d           1.238   3.065   0.007  0.00  0.00     0.096 A 
ATOM      6  C5  <0> d           2.474   3.732  -0.002  0.00  0.00     0.136 A 
ATOM      7  F1  <0> d           3.635   3.042  -0.016  0.00  0.00    -0.205 F 
ATOM      8  H1  <0> d           3.400   5.668  -0.000  0.00  0.00     0.090 H 
ATOM      9  H2  <0> d           1.257   6.872   0.026  0.00  0.00     0.114 H 
ATOM     10  H3  <0> d          -0.893   3.323   0.018  0.00  0.00     0.116 H 
ENDROOT
BRANCH   5  11
ATOM     11  C6  <0> d           1.181   1.591  -0.001  0.00  0.00     0.214 C 
ATOM     12  O1  <0> d           2.209   0.943  -0.014  0.00  0.00    -0.644 OA
ATOM     13  O2  <0> d          -0.011   0.963   0.007  0.00  0.00    -0.644 OA
ENDBRANCH   5  11
TORSDOF 1
