REMARK  3 active torsions:
REMARK  status: ('A' for Active; 'I' for Inactive)
REMARK    1  A    between atoms: C1_1  and  C2_2 
REMARK    2  A    between atoms: C2_2  and  C3_4 
REMARK    3  A    between atoms: C2_2  and  N1_6 
ROOT
ATOM      1  C2  <0> d          -1.201   2.202   0.020  0.00  0.00     0.116 C 
ATOM      2  H1  <0> d          -0.944   3.167   0.458  0.00  0.00     0.092 H 
ENDROOT
BRANCH   1   3
ATOM      3  C1  <0> d          -1.694   2.408  -1.413  0.00  0.00    -0.046 C 
ATOM      4  H2  <0> d          -0.908   2.878  -2.004  0.00  0.00     0.031 H 
ATOM      5  H3  <0> d          -1.950   1.444  -1.852  0.00  0.00     0.031 H 
ATOM      6  H4  <0> d          -2.575   3.050  -1.406  0.00  0.00     0.031 H 
ENDBRANCH   1   3
BRANCH   1   7
ATOM      7  C3  <0> d          -2.288   1.552   0.837  0.00  0.00     0.198 C 
ATOM      8  O1  <0> d          -2.093   0.479   1.357  0.00  0.00    -0.646 OA
ATOM      9  O2  <0> d          -3.472   2.166   0.987  0.00  0.00    -0.646 OA
ENDBRANCH   1   7
BRANCH   1  10
ATOM     10  N1  <0> d          -0.016   1.340   0.009  0.00  0.00    -0.248 N 
ATOM     11  N3  <0> d           1.326   1.754  -0.001  0.00  0.00    -0.164 NA
ATOM     12  C5  <0> d           2.055   0.669  -0.014  0.00  0.00     0.107 A 
ATOM     13  N2  <0> d           1.251  -0.393  -0.012  0.00  0.00    -0.234 NA
ATOM     14  H6  <0> d           3.135   0.639  -0.024  0.00  0.00     0.149 H 
ATOM     15  C4  <0> d           0.002  -0.004   0.002  0.00  0.00     0.085 A 
ATOM     16  H5  <0> d          -0.863  -0.650   0.006  0.00  0.00     0.146 H 
ENDBRANCH   1  10
TORSDOF 3
