REMARK  4 active torsions:
REMARK  status: ('A' for Active; 'I' for Inactive)
REMARK    1  A    between atoms: C1_1  and  C2_2 
REMARK    2  A    between atoms: C5_6  and  C8_12 
REMARK    3  A    between atoms: C6_8  and  O1_11 
REMARK    4  A    between atoms: C8_12  and  C10_14 
ROOT
ATOM      1  C2  <0> d          -4.729   2.017  -0.255  0.00  0.00    -0.055 C 
ATOM      2  H1  <0> d          -5.813   2.126  -0.241  0.00  0.00     0.039 H 
ATOM      3  C3  <0> d          -4.297   1.076   0.872  0.00  0.00    -0.061 C 
ATOM      4  C4  <0> d          -2.775   0.922   0.852  0.00  0.00    -0.056 C 
ATOM      5  C5  <0> d          -2.121   2.291   1.052  0.00  0.00    -0.008 C 
ATOM      6  H2  <0> d          -2.432   2.706   2.011  0.00  0.00     0.050 H 
ATOM      7  C6  <0> d          -2.553   3.232  -0.074  0.00  0.00     0.043 C 
ATOM      8  H3  <0> d          -2.087   4.207   0.068  0.00  0.00     0.084 H 
ATOM      9  C7  <0> d          -4.075   3.386  -0.055  0.00  0.00    -0.037 C 
ATOM     10  H7  <0> d          -4.608   1.490   1.830  0.00  0.00     0.033 H 
ATOM     11  H8  <0> d          -4.762   0.101   0.729  0.00  0.00     0.033 H 
ATOM     12  H9  <0> d          -2.463   0.508  -0.106  0.00  0.00     0.034 H 
ATOM     13  H10 <0> d          -2.467   0.252   1.655  0.00  0.00     0.034 H 
ATOM     14  H11 <0> d          -4.386   3.800   0.904  0.00  0.00     0.037 H 
ATOM     15  H12 <0> d          -4.383   4.056  -0.858  0.00  0.00     0.037 H 
ENDROOT
BRANCH   5  16
ATOM     16  C8  <0> d          -0.622   2.140   1.034  0.00  0.00    -0.086 C 
ATOM     17  C9  <0> d           0.099   2.635   2.009  0.00  0.00    -0.119 C 
ATOM     18  H14 <0> d           1.173   2.527   1.995  0.00  0.00     0.067 H 
ATOM     19  H15 <0> d          -0.381   3.152   2.826  0.00  0.00     0.067 H 
BRANCH  16  20
ATOM     20  C10 <0> d           0.048   1.418  -0.107  0.00  0.00    -0.055 C 
ATOM     21  H16 <0> d           0.206   0.375   0.166  0.00  0.00     0.033 H 
ATOM     22  H17 <0> d           1.009   1.887  -0.320  0.00  0.00     0.033 H 
ATOM     23  H18 <0> d          -0.585   1.470  -0.993  0.00  0.00     0.033 H 
ENDBRANCH  16  20
ENDBRANCH   5  16
BRANCH   7  24
ATOM     24  O1  <0> d          -2.145   2.688  -1.331  0.00  0.00    -0.395 OA
ATOM     25  H13 <0> d          -2.386   3.234  -2.092  0.00  0.00     0.210 HD
ENDBRANCH   7  24
BRANCH   1  26
ATOM     26  C1  <0> d          -4.292   1.435  -1.601  0.00  0.00    -0.073 C 
ATOM     27  H4  <0> d          -3.254   1.108  -1.536  0.00  0.00     0.028 H 
ATOM     28  H5  <0> d          -4.925   0.584  -1.852  0.00  0.00     0.028 H 
ATOM     29  H6  <0> d          -4.384   2.198  -2.374  0.00  0.00     0.028 H 
ENDBRANCH   1  26
TORSDOF 4
