REMARK  2 active torsions:
REMARK  status: ('A' for Active; 'I' for Inactive)
REMARK    1  A    between atoms: C1_1  and  C2_2 
REMARK    2  A    between atoms: C6_7  and  O1_10 
ROOT
ATOM      1  C2  <0> d          -0.019   1.526   0.010  0.00  0.00    -0.052 C 
ATOM      2  H1  <0> d          -0.523   1.881   0.909  0.00  0.00     0.040 H 
ATOM      3  C3  <0> d           0.002  -0.004   0.002  0.00  0.00    -0.047 C 
ATOM      4  C4  <0> d           0.935  -0.514   1.061  0.00  0.00    -0.104 C 
ATOM      5  C5  <0> d           1.843   0.207   1.636  0.00  0.00    -0.080 C 
ATOM      6  C6  <0> d           2.083   1.657   1.332  0.00  0.00     0.052 C 
ATOM      7  H2  <0> d           1.656   2.268   2.127  0.00  0.00     0.089 H 
ATOM      8  C7  <0> d           1.430   2.031  -0.001  0.00  0.00    -0.035 C 
ATOM      9  H6  <0> d          -1.003  -0.380   0.195  0.00  0.00     0.039 H 
ATOM     10  H7  <0> d           0.336  -0.355  -0.974  0.00  0.00     0.039 H 
ATOM     11  H8  <0> d           0.844  -1.548   1.361  0.00  0.00     0.076 H 
ATOM     12  H9  <0> d           2.467  -0.264   2.381  0.00  0.00     0.080 H 
ATOM     13  H10 <0> d           1.975   1.562  -0.820  0.00  0.00     0.037 H 
ATOM     14  H11 <0> d           1.439   3.114  -0.122  0.00  0.00     0.037 H 
ENDROOT
BRANCH   1  15
ATOM     15  C1  <0> d          -0.751   2.037  -1.232  0.00  0.00    -0.073 C 
ATOM     16  H3  <0> d          -1.774   1.661  -1.231  0.00  0.00     0.028 H 
ATOM     17  H4  <0> d          -0.764   3.127  -1.223  0.00  0.00     0.028 H 
ATOM     18  H5  <0> d          -0.237   1.687  -2.127  0.00  0.00     0.028 H 
ENDBRANCH   1  15
BRANCH   6  19
ATOM     19  O1  <0> d           3.489   1.899   1.252  0.00  0.00    -0.392 OA
ATOM     20  H12 <0> d           3.970   1.693   2.065  0.00  0.00     0.210 HD
ENDBRANCH   6  19
TORSDOF 2
