REMARK  3 active torsions:
REMARK  status: ('A' for Active; 'I' for Inactive)
REMARK    1  A    between atoms: C1_1  and  C2_2 
REMARK    2  A    between atoms: C4_4  and  N2_10 
REMARK    3  A    between atoms: C5_5  and  N1_9 
ROOT
ATOM      1  C2  <0> d           0.002  -0.004   0.002  0.00  0.00    -0.058 A 
ATOM      2  C3  <0> d           0.006  -0.687  -1.201  0.00  0.00    -0.050 A 
ATOM      3  C4  <0> d           0.025  -2.073  -1.211  0.00  0.00     0.054 A 
ATOM      4  C5  <0> d           0.040  -2.776  -0.006  0.00  0.00     0.074 A 
ATOM      5  C6  <0> d           0.036  -2.083   1.196  0.00  0.00     0.063 A 
ATOM      6  C7  <0> d           0.023  -0.699   1.196  0.00  0.00    -0.054 A 
ATOM      7 Cl1  <0> d           0.055  -2.952   2.698  0.00  0.00    -0.082 Cl
ATOM      8  H4  <0> d          -0.006  -0.140  -2.132  0.00  0.00     0.087 H 
ATOM      9  H5  <0> d           0.025  -0.161   2.133  0.00  0.00     0.087 H 
ENDROOT
BRANCH   1  10
ATOM     10  C1  <0> d          -0.018   1.503   0.010  0.00  0.00    -0.051 C 
ATOM     11  H1  <0> d           1.004   1.880   0.003  0.00  0.00     0.033 H 
ATOM     12  H2  <0> d          -0.545   1.864  -0.873  0.00  0.00     0.033 H 
ATOM     13  H3  <0> d          -0.529   1.854   0.907  0.00  0.00     0.033 H 
ENDBRANCH   1  10
BRANCH   3  14
ATOM     14  N2  <0> d           0.028  -2.766  -2.428  0.00  0.00    -0.397 N 
ATOM     15  H8  <0> d           0.017  -2.276  -3.265  0.00  0.00     0.156 HD
ATOM     16  H9  <0> d           0.041  -3.736  -2.434  0.00  0.00     0.156 HD
ENDBRANCH   3  14
BRANCH   4  17
ATOM     17  N1  <0> d           0.058  -4.177  -0.010  0.00  0.00    -0.396 N 
ATOM     18  H6  <0> d           0.060  -4.659  -0.852  0.00  0.00     0.156 HD
ATOM     19  H7  <0> d           0.069  -4.664   0.829  0.00  0.00     0.156 HD
ENDBRANCH   4  17
TORSDOF 3
