REMARK  3 active torsions:
REMARK  status: ('A' for Active; 'I' for Inactive)
REMARK    1  A    between atoms: C1_1  and  C2_2 
REMARK    2  A    between atoms: C4_4  and  N3_8 
REMARK       I    between atoms: N3_8  and  C5_9 
REMARK    3  A    between atoms: C5_9  and  C6_11 
ROOT
ATOM      1  C2  <0> d           0.002  -0.004   0.002  0.00  0.00     0.054 A 
ATOM      2  C3  <0> d           0.008  -0.816  -1.135  0.00  0.00    -0.014 A 
ATOM      3  C4  <0> d           0.028  -2.113  -0.722  0.00  0.00     0.126 A 
ATOM      4  N1  <0> d           0.035  -2.110   0.631  0.00  0.00    -0.262 N 
ATOM      5  H1  <0> d           0.049  -2.892   1.203  0.00  0.00     0.191 HD
ATOM      6  N2  <0> d           0.023  -0.776   1.058  0.00  0.00    -0.178 NA
ATOM      7  H5  <0> d          -0.002  -0.475  -2.160  0.00  0.00     0.092 H 
ENDROOT
BRANCH   3   8
ATOM      8  N3  <0> d           0.040  -3.240  -1.543  0.00  0.00    -0.312 N 
ATOM      9  C5  <0> d           0.031  -3.097  -2.883  0.00  0.00     0.219 C 
ATOM     10  O1  <0> d           0.013  -1.988  -3.375  0.00  0.00    -0.274 OA
ATOM     11  H6  <0> d           0.054  -4.126  -1.150  0.00  0.00     0.170 HD
BRANCH   9  12
ATOM     12  C6  <0> d           0.043  -4.315  -3.771  0.00  0.00    -0.003 C 
ATOM     13  H7  <0> d          -0.981  -4.622  -3.980  0.00  0.00     0.040 H 
ATOM     14  H8  <0> d           0.549  -4.077  -4.707  0.00  0.00     0.040 H 
ATOM     15  H9  <0> d           0.571  -5.125  -3.269  0.00  0.00     0.040 H 
ENDBRANCH   9  12
ENDBRANCH   3   8
BRANCH   1  16
ATOM     16  C1  <0> d          -0.018   1.503   0.010  0.00  0.00    -0.034 C 
ATOM     17  H2  <0> d           1.004   1.880   0.003  0.00  0.00     0.035 H 
ATOM     18  H3  <0> d          -0.545   1.864  -0.873  0.00  0.00     0.035 H 
ATOM     19  H4  <0> d          -0.529   1.854   0.907  0.00  0.00     0.035 H 
ENDBRANCH   1  16
TORSDOF 3
