REMARK  6 active torsions:
REMARK  status: ('A' for Active; 'I' for Inactive)
REMARK    1  A    between atoms: C1_1  and  C2_2 
REMARK    2  A    between atoms: C2_2  and  C3_3 
REMARK    3  A    between atoms: C3_3  and  C4_5 
REMARK    4  A    between atoms: C3_3  and  O2_9 
REMARK    5  A    between atoms: C4_5  and  C5_6 
REMARK       I    between atoms: C5_6  and  N1_8 
REMARK    6  A    between atoms: O2_9  and  C6_10 
ROOT
ATOM      1  C3  <0> d          -2.649   3.618   0.402  0.00  0.00     0.045 C 
ATOM      2  H1  <0> d          -3.295   3.476   1.268  0.00  0.00     0.083 H 
ENDROOT
BRANCH   1   3
ATOM      3  C2  <0> d          -2.265   5.095   0.288  0.00  0.00    -0.044 C 
ATOM      4  H5  <0> d          -1.657   5.380   1.147  0.00  0.00     0.036 H 
ATOM      5  H6  <0> d          -1.698   5.254  -0.628  0.00  0.00     0.036 H 
BRANCH   3   6
ATOM      6  C1  <0> d          -3.534   5.950   0.257  0.00  0.00    -0.074 C 
ATOM      7  H2  <0> d          -4.092   5.739  -0.655  0.00  0.00     0.027 H 
ATOM      8  H3  <0> d          -4.152   5.715   1.124  0.00  0.00     0.027 H 
ATOM      9  H4  <0> d          -3.262   7.005   0.280  0.00  0.00     0.027 H 
ENDBRANCH   3   6
ENDBRANCH   1   3
BRANCH   1  10
ATOM     10  C4  <0> d          -1.383   2.774   0.566  0.00  0.00     0.033 C 
ATOM     11  H7  <0> d          -0.809   3.141   1.417  0.00  0.00     0.051 H 
ATOM     12  H8  <0> d          -0.778   2.847  -0.338  0.00  0.00     0.051 H 
BRANCH  10  13
ATOM     13  C5  <0> d          -1.766   1.335   0.800  0.00  0.00     0.217 C 
ATOM     14  O1  <0> d          -2.935   1.017   0.833  0.00  0.00    -0.274 OA
ATOM     15  N1  <0> d          -0.808   0.403   0.974  0.00  0.00    -0.370 N 
ATOM     16  H9  <0> d          -1.054  -0.523   1.125  0.00  0.00     0.159 HD
ATOM     17  H10 <0> d           0.128   0.658   0.944  0.00  0.00     0.159 HD
ENDBRANCH  10  13
ENDBRANCH   1  10
BRANCH   1  18
ATOM     18  O2  <0> d          -3.341   3.213  -0.781  0.00  0.00    -0.390 OA
BRANCH  18  19
ATOM     19  C6  <0> d          -4.762   3.176  -0.638  0.00  0.00     0.004 C 
ATOM     20  H11 <0> d          -5.212   2.831  -1.569  0.00  0.00     0.066 H 
ATOM     21  H12 <0> d          -5.029   2.494   0.169  0.00  0.00     0.066 H 
ATOM     22  H13 <0> d          -5.130   4.176  -0.406  0.00  0.00     0.066 H 
ENDBRANCH  18  19
ENDBRANCH   1  18
TORSDOF 6
