REMARK  5 active torsions:
REMARK  status: ('A' for Active; 'I' for Inactive)
REMARK    1  A    between atoms: C1_1  and  C2_2 
REMARK    2  A    between atoms: C2_2  and  C3_4 
REMARK    3  A    between atoms: C2_2  and  C5_8 
REMARK    4  A    between atoms: C3_4  and  C4_6 
REMARK    5  A    between atoms: C3_4  and  O1_7 
ROOT
ATOM      1  C2  <0> d           0.002  -0.004   0.002  0.00  0.00     0.051 C 
ATOM      2  H1  <0> d           0.512  -0.356  -0.895  0.00  0.00     0.059 H 
ENDROOT
BRANCH   1   3
ATOM      3  C1  <0> d          -0.019   1.526   0.010  0.00  0.00    -0.061 C 
ATOM      4  H3  <0> d           1.004   1.903   0.003  0.00  0.00     0.028 H 
ATOM      5  H4  <0> d          -0.546   1.887  -0.873  0.00  0.00     0.028 H 
ATOM      6  H5  <0> d          -0.529   1.877   0.907  0.00  0.00     0.028 H 
ENDBRANCH   1   3
BRANCH   1   7
ATOM      7  C3  <0> d           0.742  -0.511   1.242  0.00  0.00     0.044 C 
ATOM      8  H2  <0> d           0.232  -0.159   2.138  0.00  0.00     0.083 H 
BRANCH   7   9
ATOM      9  C4  <0> d           2.178   0.019   1.231  0.00  0.00    -0.052 C 
ATOM     10  H6  <0> d           2.163   1.109   1.237  0.00  0.00     0.030 H 
ATOM     11  H7  <0> d           2.705  -0.342   2.114  0.00  0.00     0.030 H 
ATOM     12  H8  <0> d           2.688  -0.333   0.334  0.00  0.00     0.030 H 
ENDBRANCH   7   9
BRANCH   7  13
ATOM     13  O1  <0> d           0.761  -1.940   1.234  0.00  0.00    -0.395 OA
ATOM     14  H9  <0> d           1.201  -2.323   0.462  0.00  0.00     0.210 HD
ENDBRANCH   7  13
ENDBRANCH   1   7
BRANCH   1  15
ATOM     15  C5  <0> d          -1.412  -0.526   0.013  0.00  0.00     0.179 C 
ATOM     16  O2  <0> d          -1.789  -1.230   0.919  0.00  0.00    -0.648 OA
ATOM     17  O3  <0> d          -2.252  -0.207  -0.984  0.00  0.00    -0.648 OA
ENDBRANCH   1  15
TORSDOF 5
