REMARK  4 active torsions:
REMARK  status: ('A' for Active; 'I' for Inactive)
REMARK    1  A    between atoms: C1_1  and  C2_2 
REMARK    2  A    between atoms: C4_6  and  C5_9 
REMARK    3  A    between atoms: C5_9  and  C6_10 
REMARK    4  A    between atoms: C5_9  and  C7_11 
ROOT
ATOM      1  C2  <0> d          -1.053   0.367   4.439  0.00  0.00     0.058 C 
ATOM      2  H1  <0> d          -2.092   0.111   4.233  0.00  0.00     0.086 H 
ATOM      3  C3  <0> d          -0.101  -0.733   3.905  0.00  0.00     0.046 C 
ATOM      4  O1  <0> d           0.020  -0.365   2.510  0.00  0.00    -0.358 OA
ATOM      5  C4  <0> d           0.011   1.072   2.506  0.00  0.00     0.134 C 
ATOM      6  H2  <0> d           1.036   1.443   2.498  0.00  0.00     0.129 H 
ATOM      7  O2  <0> d          -0.657   1.533   3.688  0.00  0.00    -0.354 OA
ATOM      8  H6  <0> d           0.866  -0.689   4.405  0.00  0.00     0.078 H 
ATOM      9  H7  <0> d          -0.549  -1.721   4.011  0.00  0.00     0.078 H 
ENDROOT
BRANCH   5  10
ATOM     10  C5  <0> d          -0.729   1.579   1.267  0.00  0.00    -0.013 C 
ATOM     11  H8  <0> d          -0.744   2.669   1.273  0.00  0.00     0.046 H 
BRANCH  10  12
ATOM     12  C6  <0> d          -0.013   1.086   0.008  0.00  0.00    -0.069 C 
ATOM     13  H9  <0> d           0.002  -0.004   0.002  0.00  0.00     0.028 H 
ATOM     14  H10 <0> d           1.010   1.463   0.000  0.00  0.00     0.028 H 
ATOM     15  H11 <0> d          -0.540   1.447  -0.875  0.00  0.00     0.028 H 
ENDBRANCH  10  12
BRANCH  10  16
ATOM     16  C7  <0> d          -2.164   1.050   1.278  0.00  0.00    -0.069 C 
ATOM     17  H12 <0> d          -2.149  -0.040   1.272  0.00  0.00     0.028 H 
ATOM     18  H13 <0> d          -2.674   1.401   2.175  0.00  0.00     0.028 H 
ATOM     19  H14 <0> d          -2.691   1.411   0.395  0.00  0.00     0.028 H 
ENDBRANCH  10  16
ENDBRANCH   5  10
BRANCH   1  20
ATOM     20  C1  <0> d          -0.835   0.589   5.937  0.00  0.00    -0.050 C 
ATOM     21  H3  <0> d          -1.450   1.423   6.273  0.00  0.00     0.031 H 
ATOM     22  H4  <0> d          -1.116  -0.312   6.482  0.00  0.00     0.031 H 
ATOM     23  H5  <0> d           0.215   0.814   6.122  0.00  0.00     0.031 H 
ENDBRANCH   1  20
TORSDOF 4
