REMARK  1 active torsions:
REMARK  status: ('A' for Active; 'I' for Inactive)
REMARK    1  A    between atoms: C2_3  and  C3_4 
ROOT
ATOM      1  C1  <0> d          -0.018   1.472   0.010  0.00  0.00     0.021 A 
ATOM      2  N1  <0> d           1.230   1.864   0.000  0.00  0.00    -0.237 NA
ATOM      3  C2  <0> d           2.028   0.762  -0.013  0.00  0.00     0.197 A 
ATOM      4  N4  <0> d           1.260  -0.362  -0.012  0.00  0.00    -0.237 NA
ATOM      5  C6  <0> d           0.002  -0.004   0.002  0.00  0.00     0.021 A 
ATOM      6  H1  <0> d          -0.893   2.105   0.026  0.00  0.00     0.117 H 
ATOM      7  H4  <0> d          -0.855  -0.661   0.007  0.00  0.00     0.117 H 
ENDROOT
BRANCH   3   8
ATOM      8  C3  <0> d           3.422   0.781  -0.026  0.00  0.00     0.197 A 
ATOM      9  N3  <0> d           4.221  -0.322  -0.040  0.00  0.00    -0.237 NA
ATOM     10  C5  <0> d           5.469   0.070  -0.052  0.00  0.00     0.021 A 
ATOM     11  C4  <0> d           5.449   1.546  -0.036  0.00  0.00     0.021 A 
ATOM     12  H3  <0> d           6.343  -0.563  -0.067  0.00  0.00     0.117 H 
ATOM     13  N2  <0> d           4.191   1.904  -0.021  0.00  0.00    -0.237 NA
ATOM     14  H2  <0> d           6.306   2.203  -0.037  0.00  0.00     0.117 H 
ENDBRANCH   3   8
TORSDOF 1
