REMARK  3 active torsions:
REMARK  status: ('A' for Active; 'I' for Inactive)
REMARK    1  A    between atoms: C5_6  and  C6_7 
REMARK    2  A    between atoms: C6_7  and  C7_8 
REMARK    3  A    between atoms: C7_8  and  O1_9 
ROOT
ATOM      1  C1  <0> d          -0.017   1.383   0.010  0.00  0.00    -0.072 A 
ATOM      2  C2  <0> d           1.193   2.059   0.002  0.00  0.00    -0.043 A 
ATOM      3  C3  <0> d           2.371   1.333  -0.013  0.00  0.00     0.125 A 
ATOM      4  N1  <0> d           2.350   0.014  -0.021  0.00  0.00    -0.248 NA
ATOM      5  C4  <0> d           1.217  -0.662  -0.014  0.00  0.00     0.010 A 
ATOM      6  C5  <0> d           0.002  -0.004   0.002  0.00  0.00    -0.038 A 
ATOM      7 Cl1  <0> d           3.893   2.168  -0.024  0.00  0.00    -0.062 Cl
ATOM      8  H1  <0> d          -0.952   1.923   0.026  0.00  0.00     0.084 H 
ATOM      9  H2  <0> d           1.216   3.139   0.007  0.00  0.00     0.088 H 
ATOM     10  H3  <0> d           1.240  -1.741  -0.020  0.00  0.00     0.115 H 
ENDROOT
BRANCH   6  11
ATOM     11  C6  <0> d          -1.287  -0.784   0.010  0.00  0.00    -0.020 C 
ATOM     12  H4  <0> d          -1.132  -1.737   0.517  0.00  0.00     0.043 H 
ATOM     13  H5  <0> d          -2.054  -0.214   0.534  0.00  0.00     0.043 H 
BRANCH  11  14
ATOM     14  C7  <0> d          -1.737  -1.041  -1.429  0.00  0.00     0.020 C 
ATOM     15  H6  <0> d          -1.892  -0.088  -1.937  0.00  0.00     0.074 H 
ATOM     16  H7  <0> d          -0.971  -1.611  -1.954  0.00  0.00     0.074 H 
BRANCH  14  17
ATOM     17  O1  <0> d          -2.960  -1.781  -1.422  0.00  0.00    -0.401 OA
ATOM     18  H8  <0> d          -3.305  -1.980  -2.303  0.00  0.00     0.209 HD
ENDBRANCH  14  17
ENDBRANCH  11  14
ENDBRANCH   6  11
TORSDOF 3
