REMARK  1 active torsions:
REMARK  status: ('A' for Active; 'I' for Inactive)
REMARK    1  A    between atoms: C1_1  and  C2_2 
ROOT
ATOM      1  C2  <0> d           1.143   2.325   0.004  0.00  0.00    -0.025 A 
ATOM      2  C3  <0> d           0.653   3.578   0.015  0.00  0.00    -0.016 A 
ATOM      3  N1  <0> d          -0.710   3.519   0.028  0.00  0.00    -0.373 N 
ATOM      4  H1  <0> d          -1.298   4.290   0.037  0.00  0.00     0.164 HD
ATOM      5  C4  <0> d          -1.121   2.234   0.019  0.00  0.00    -0.003 A 
ATOM      6  C5  <0> d          -0.017   1.428   0.010  0.00  0.00     0.067 A 
ATOM      7  C6  <0> d           0.002  -0.004   0.002  0.00  0.00     0.101 C 
ATOM      8  N2  <0> d           0.018  -1.140  -0.004  0.00  0.00    -0.191 NA
ATOM      9  H5  <0> d           1.243   4.483   0.014  0.00  0.00     0.112 H 
ATOM     10  H6  <0> d          -2.148   1.900   0.021  0.00  0.00     0.113 H 
ENDROOT
BRANCH   1  11
ATOM     11  C1  <0> d           2.595   1.923  -0.012  0.00  0.00    -0.048 C 
ATOM     12  H2  <0> d           2.936   1.831  -1.043  0.00  0.00     0.033 H 
ATOM     13  H3  <0> d           3.188   2.681   0.500  0.00  0.00     0.033 H 
ATOM     14  H4  <0> d           2.713   0.966   0.496  0.00  0.00     0.033 H 
ENDBRANCH   1  11
TORSDOF 1
