REMARK  3 active torsions:
REMARK  status: ('A' for Active; 'I' for Inactive)
REMARK    1  A    between atoms: C1_1  and  C2_2 
REMARK    2  A    between atoms: C3_3  and  O1_9 
REMARK    3  A    between atoms: C4_4  and  C6_8 
ROOT
ATOM      1  C2  <0> d           0.002  -0.004   0.002  0.00  0.00     0.067 A 
ATOM      2  C3  <0> d           0.006  -0.703  -1.200  0.00  0.00     0.114 A 
ATOM      3  C4  <0> d           0.026  -2.093  -1.155  0.00  0.00     0.067 A 
ATOM      4  N1  <0> d           0.040  -2.697   0.022  0.00  0.00    -0.244 NA
ATOM      5  C5  <0> d           0.035  -1.999   1.140  0.00  0.00     0.087 A 
ATOM      6  N2  <0> d           0.022  -0.681   1.138  0.00  0.00    -0.244 NA
ATOM      7  H4  <0> d           0.047  -2.522   2.085  0.00  0.00     0.146 H 
ENDROOT
BRANCH   1   8
ATOM      8  C1  <0> d          -0.018   1.503   0.010  0.00  0.00    -0.033 C 
ATOM      9  H1  <0> d           1.004   1.880   0.003  0.00  0.00     0.035 H 
ATOM     10  H2  <0> d          -0.545   1.864  -0.873  0.00  0.00     0.035 H 
ATOM     11  H3  <0> d          -0.529   1.854   0.907  0.00  0.00     0.035 H 
ENDBRANCH   1   8
BRANCH   2  12
ATOM     12  O1  <0> d          -0.009  -0.045  -2.390  0.00  0.00    -0.357 OA
ATOM     13  H8  <0> d           0.870   0.158  -2.738  0.00  0.00     0.218 HD
ENDBRANCH   2  12
BRANCH   3  14
ATOM     14  C6  <0> d           0.030  -2.900  -2.428  0.00  0.00    -0.033 C 
ATOM     15  H5  <0> d           1.059  -3.080  -2.740  0.00  0.00     0.035 H 
ATOM     16  H6  <0> d          -0.469  -3.853  -2.256  0.00  0.00     0.035 H 
ATOM     17  H7  <0> d          -0.495  -2.350  -3.208  0.00  0.00     0.035 H 
ENDBRANCH   3  14
TORSDOF 3
