REMARK  8 active torsions:
REMARK  status: ('A' for Active; 'I' for Inactive)
REMARK    1  A    between atoms: C1_1  and  C2_2 
REMARK       I    between atoms: C2_2  and  N1_4 
REMARK    2  A    between atoms: N1_4  and  C3_5 
REMARK    3  A    between atoms: C3_5  and  C4_6 
REMARK    4  A    between atoms: C4_6  and  C5_7 
REMARK    5  A    between atoms: C5_7  and  C6_8 
REMARK    6  A    between atoms: C6_8  and  C7_9 
REMARK    7  A    between atoms: C6_8  and  C8_10 
REMARK    8  A    between atoms: C6_8  and  C9_11 
ROOT
ATOM      1  C5  <0> d           0.034  -4.168  -2.631  0.00  0.00    -0.058 C 
ATOM      2  H9  <0> d           0.933  -4.522  -2.127  0.00  0.00     0.034 H 
ATOM      3  H10 <0> d          -0.846  -4.547  -2.110  0.00  0.00     0.034 H 
ENDROOT
BRANCH   1   4
ATOM      4  C4  <0> d           0.013  -2.639  -2.622  0.00  0.00    -0.050 C 
ATOM      5  H7  <0> d          -0.887  -2.285  -3.126  0.00  0.00     0.035 H 
ATOM      6  H8  <0> d           0.893  -2.260  -3.142  0.00  0.00     0.035 H 
BRANCH   4   7
ATOM      7  C3  <0> d           0.020  -2.136  -1.177  0.00  0.00    -0.005 C 
ATOM      8  H5  <0> d           0.920  -2.490  -0.673  0.00  0.00     0.064 H 
ATOM      9  H6  <0> d          -0.860  -2.515  -0.657  0.00  0.00     0.064 H 
BRANCH   7  10
ATOM     10  N1  <0> d           0.000  -0.672  -1.169  0.00  0.00    -0.361 N 
ATOM     11  C2  <0> d           0.002  -0.004   0.002  0.00  0.00     0.213 C 
ATOM     12  O1  <0> d           0.020  -0.616   1.049  0.00  0.00    -0.274 OA
ATOM     13  H4  <0> d          -0.015  -0.182  -2.006  0.00  0.00     0.162 HD
BRANCH  11  14
ATOM     14  C1  <0> d          -0.018   1.503   0.010  0.00  0.00    -0.003 C 
ATOM     15  H1  <0> d           1.004   1.880   0.003  0.00  0.00     0.040 H 
ATOM     16  H2  <0> d          -0.545   1.864  -0.873  0.00  0.00     0.040 H 
ATOM     17  H3  <0> d          -0.529   1.854   0.907  0.00  0.00     0.040 H 
ENDBRANCH  11  14
ENDBRANCH   7  10
ENDBRANCH   4   7
ENDBRANCH   1   4
BRANCH   1  18
ATOM     18  C6  <0> d           0.027  -4.671  -4.076  0.00  0.00    -0.051 C 
BRANCH  18  19
ATOM     19  C7  <0> d           1.262  -4.140  -4.806  0.00  0.00    -0.070 C 
ATOM     20  H11 <0> d           2.162  -4.494  -4.303  0.00  0.00     0.028 H 
ATOM     21  H12 <0> d           1.257  -4.498  -5.836  0.00  0.00     0.028 H 
ATOM     22  H13 <0> d           1.248  -3.050  -4.800  0.00  0.00     0.028 H 
ENDBRANCH  18  19
BRANCH  18  23
ATOM     23  C8  <0> d           0.048  -6.200  -4.084  0.00  0.00    -0.070 C 
ATOM     24  H14 <0> d          -0.832  -6.579  -3.564  0.00  0.00     0.028 H 
ATOM     25  H15 <0> d           0.043  -6.558  -5.114  0.00  0.00     0.028 H 
ATOM     26  H16 <0> d           0.947  -6.554  -3.581  0.00  0.00     0.028 H 
ENDBRANCH  18  23
BRANCH  18  27
ATOM     27  C9  <0> d          -1.236  -4.174  -4.782  0.00  0.00    -0.070 C 
ATOM     28  H17 <0> d          -1.251  -3.084  -4.776  0.00  0.00     0.028 H 
ATOM     29  H18 <0> d          -1.241  -4.532  -5.812  0.00  0.00     0.028 H 
ATOM     30  H19 <0> d          -2.116  -4.552  -4.262  0.00  0.00     0.028 H 
ENDBRANCH  18  27
ENDBRANCH   1  18
TORSDOF 8
