REMARK  2 active torsions:
REMARK  status: ('A' for Active; 'I' for Inactive)
REMARK    1  A    between atoms: C7_10  and  O3_15 
REMARK    2  A    between atoms: C8_12  and  O2_14 
ROOT
ATOM      1  C1  <0> d           1.132   3.091  -0.050  0.00  0.00    -0.033 C 
ATOM      2  C2  <0> d           2.529   3.678  -0.009  0.00  0.00    -0.026 C 
ATOM      3  H1  <0> d           3.151   3.285  -0.814  0.00  0.00     0.044 H 
ATOM      4  C3  <0> d           2.634   5.204   0.073  0.00  0.00     0.023 C 
ATOM      5  O1  <0> d           3.939   5.421   0.670  0.00  0.00    -0.390 OA
ATOM      6  C4  <0> d           4.307   4.264   1.458  0.00  0.00     0.023 C 
ATOM      7  C5  <0> d           3.116   3.314   1.390  0.00  0.00    -0.026 C 
ATOM      8  H2  <0> d           2.395   3.544   2.174  0.00  0.00     0.044 H 
ATOM      9  C6  <0> d           3.406   1.828   1.365  0.00  0.00    -0.033 C 
ATOM     10  C7  <0> d           2.052   1.109   1.237  0.00  0.00     0.060 C 
ATOM     11  H3  <0> d           1.452   1.320   2.122  0.00  0.00     0.086 H 
ATOM     12  C8  <0> d           1.286   1.562  -0.002  0.00  0.00     0.060 C 
ATOM     13  H4  <0> d           1.823   1.232  -0.891  0.00  0.00     0.086 H 
ATOM     14  H5  <0> d           0.631   3.386  -0.972  0.00  0.00     0.037 H 
ATOM     15  H6  <0> d           0.559   3.435   0.812  0.00  0.00     0.037 H 
ATOM     16  H7  <0> d           2.590   5.647  -0.922  0.00  0.00     0.074 H 
ATOM     17  H8  <0> d           1.848   5.610   0.710  0.00  0.00     0.074 H 
ATOM     18  H9  <0> d           4.495   4.557   2.491  0.00  0.00     0.074 H 
ATOM     19  H10 <0> d           5.191   3.788   1.035  0.00  0.00     0.074 H 
ATOM     20  H11 <0> d           3.900   1.530   2.290  0.00  0.00     0.037 H 
ATOM     21  H12 <0> d           4.037   1.587   0.510  0.00  0.00     0.037 H 
ENDROOT
BRANCH  10  22
ATOM     22  O3  <0> d           2.280  -0.299   1.155  0.00  0.00    -0.393 OA
ATOM     23  H14 <0> d           1.471  -0.827   1.106  0.00  0.00     0.210 HD
ENDBRANCH  10  22
BRANCH  12  24
ATOM     24  O2  <0> d          -0.011   0.963   0.007  0.00  0.00    -0.393 OA
ATOM     25  H13 <0> d           0.002  -0.004   0.002  0.00  0.00     0.210 HD
ENDBRANCH  12  24
TORSDOF 2
