REMARK  3 active torsions:
REMARK  status: ('A' for Active; 'I' for Inactive)
REMARK    1  A    between atoms: C1_1  and  C2_2 
REMARK    2  A    between atoms: C4_4  and  C7_8 
REMARK    3  A    between atoms: C5_6  and  C6_7 
ROOT
ATOM      1  C2  <0> d          -1.616   2.855   2.815  0.00  0.00    -0.030 A 
ATOM      2  C3  <0> d          -0.917   2.858   1.587  0.00  0.00    -0.047 A 
ATOM      3  C4  <0> d          -0.718   1.572   1.248  0.00  0.00     0.050 A 
ATOM      4  O1  <0> d          -1.250   0.794   2.205  0.00  0.00    -0.320 OA
ATOM      5  C5  <0> d          -1.796   1.567   3.158  0.00  0.00     0.055 A 
ATOM      6  H4  <0> d          -0.604   3.727   1.026  0.00  0.00     0.088 H 
ENDROOT
BRANCH   1   7
ATOM      7  C1  <0> d          -2.068   4.063   3.595  0.00  0.00    -0.049 C 
ATOM      8  H1  <0> d          -1.282   4.364   4.287  0.00  0.00     0.033 H 
ATOM      9  H2  <0> d          -2.279   4.882   2.906  0.00  0.00     0.033 H 
ATOM     10  H3  <0> d          -2.971   3.818   4.154  0.00  0.00     0.033 H 
ENDBRANCH   1   7
BRANCH   5  11
ATOM     11  C6  <0> d          -2.492   1.074   4.400  0.00  0.00    -0.031 C 
ATOM     12  H5  <0> d          -2.487  -0.016   4.412  0.00  0.00     0.036 H 
ATOM     13  H6  <0> d          -1.972   1.449   5.282  0.00  0.00     0.036 H 
ATOM     14  H7  <0> d          -3.522   1.433   4.406  0.00  0.00     0.036 H 
ENDBRANCH   5  11
BRANCH   3  15
ATOM     15  C7  <0> d          -0.013   1.086   0.008  0.00  0.00    -0.031 C 
ATOM     16  H8  <0> d           0.002  -0.004   0.002  0.00  0.00     0.036 H 
ATOM     17  H9  <0> d           1.010   1.463   0.000  0.00  0.00     0.036 H 
ATOM     18  H10 <0> d          -0.540   1.447  -0.875  0.00  0.00     0.036 H 
ENDBRANCH   3  15
TORSDOF 3
