REMARK  1 active torsions:
REMARK  status: ('A' for Active; 'I' for Inactive)
REMARK    1  A    between atoms: C4_4  and  C7_7 
ROOT
ATOM      1  C7  <0> d           3.656  -0.660  -0.037  0.00  0.00    -0.051 C 
ATOM      2  C8  <0> d           4.683  -1.230  -0.050  0.00  0.00     0.018 C 
ATOM      3  C9  <0> d           5.886  -1.899  -0.066  0.00  0.00     0.152 C 
ATOM      4  N1  <0> d           6.880  -2.451  -0.079  0.00  0.00    -0.182 NA
ENDROOT
BRANCH   1   5
ATOM      5  C4  <0> d           2.405   0.035  -0.021  0.00  0.00     0.018 A 
ATOM      6  C3  <0> d           2.377   1.433  -0.013  0.00  0.00    -0.065 A 
ATOM      7  C2  <0> d           1.168   2.095   0.002  0.00  0.00    -0.082 A 
ATOM      8  H3  <0> d           3.301   1.992  -0.019  0.00  0.00     0.085 H 
ATOM      9  C1  <0> d          -0.017   1.380   0.010  0.00  0.00    -0.083 A 
ATOM     10  H2  <0> d           1.145   3.175   0.008  0.00  0.00     0.083 H 
ATOM     11  C6  <0> d           0.002  -0.004   0.002  0.00  0.00    -0.082 A 
ATOM     12  H1  <0> d          -0.961   1.904   0.017  0.00  0.00     0.083 H 
ATOM     13  C5  <0> d           1.203  -0.681  -0.013  0.00  0.00    -0.065 A 
ATOM     14  H5  <0> d          -0.927  -0.555   0.008  0.00  0.00     0.083 H 
ATOM     15  H4  <0> d           1.216  -1.761  -0.019  0.00  0.00     0.085 H 
ENDBRANCH   1   5
TORSDOF 1
