REMARK  2 active torsions:
REMARK  status: ('A' for Active; 'I' for Inactive)
REMARK    1  A    between atoms: C1_1  and  O1_2 
REMARK    2  A    between atoms: O1_2  and  C2_3 
ROOT
ATOM      1  C2  <0> d           0.674  -2.704  -0.017  0.00  0.00     0.069 A 
ATOM      2  C3  <0> d          -0.660  -2.308  -0.003  0.00  0.00    -0.048 A 
ATOM      3  C4  <0> d          -0.995  -0.971   0.007  0.00  0.00    -0.047 A 
ATOM      4  C5  <0> d           0.002  -0.004   0.002  0.00  0.00     0.085 A 
ATOM      5  C6  <0> d           1.349  -0.402  -0.013  0.00  0.00     0.002 A 
ATOM      6  C7  <0> d           1.680  -1.757  -0.022  0.00  0.00    -0.038 A 
ATOM      7  C8  <0> d           2.127   0.843  -0.014  0.00  0.00    -0.049 A 
ATOM      8  C9  <0> d           1.233   1.841   0.000  0.00  0.00     0.020 A 
ATOM      9  O2  <0> d          -0.016   1.345   0.009  0.00  0.00    -0.322 OA
ATOM     10  H4  <0> d          -1.440  -3.054   0.001  0.00  0.00     0.087 H 
ATOM     11  H5  <0> d          -2.034  -0.675   0.018  0.00  0.00     0.087 H 
ATOM     12  H6  <0> d           2.715  -2.063  -0.033  0.00  0.00     0.089 H 
ATOM     13  H7  <0> d           3.203   0.935  -0.023  0.00  0.00     0.087 H 
ATOM     14  H8  <0> d           1.481   2.893   0.003  0.00  0.00     0.123 H 
ENDROOT
BRANCH   1  15
ATOM     15  O1  <0> d           0.988  -4.027  -0.026  0.00  0.00    -0.356 OA
BRANCH  15  16
ATOM     16  C1  <0> d          -0.101  -4.952  -0.020  0.00  0.00     0.010 C 
ATOM     17  H1  <0> d           0.288  -5.971  -0.028  0.00  0.00     0.066 H 
ATOM     18  H2  <0> d          -0.702  -4.800   0.877  0.00  0.00     0.066 H 
ATOM     19  H3  <0> d          -0.719  -4.792  -0.903  0.00  0.00     0.066 H 
ENDBRANCH  15  16
ENDBRANCH   1  15
TORSDOF 2
