REMARK  3 active torsions:
REMARK  status: ('A' for Active; 'I' for Inactive)
REMARK    1  A    between atoms: C1_1  and  C2_2 
REMARK    2  A    between atoms: C6_7  and  C8_11 
REMARK    3  A    between atoms: C7_9  and  O1_10 
ROOT
ATOM      1  C2  <0> d           0.002  -0.004   0.002  0.00  0.00    -0.032 C 
ATOM      2  H1  <0> d           0.512  -0.356  -0.895  0.00  0.00     0.043 H 
ATOM      3  C3  <0> d           0.742  -0.511   1.242  0.00  0.00    -0.060 C 
ATOM      4  C4  <0> d           0.763  -2.041   1.233  0.00  0.00    -0.064 C 
ATOM      5  C5  <0> d          -0.673  -2.570   1.244  0.00  0.00    -0.060 C 
ATOM      6  C6  <0> d          -1.413  -2.063   0.004  0.00  0.00    -0.032 C 
ATOM      7  H2  <0> d          -0.902  -2.415  -0.892  0.00  0.00     0.043 H 
ATOM      8  C7  <0> d          -1.433  -0.534   0.013  0.00  0.00     0.042 C 
ATOM      9  H6  <0> d           1.765  -0.134   1.234  0.00  0.00     0.033 H 
ATOM     10  H7  <0> d           0.232  -0.159   2.138  0.00  0.00     0.033 H 
ATOM     11  H8  <0> d           1.273  -2.392   0.336  0.00  0.00     0.033 H 
ATOM     12  H9  <0> d           1.290  -2.402   2.116  0.00  0.00     0.033 H 
ATOM     13  H10 <0> d          -0.658  -3.660   1.238  0.00  0.00     0.033 H 
ATOM     14  H11 <0> d          -1.183  -2.219   2.141  0.00  0.00     0.033 H 
ATOM     15  H12 <0> d          -1.944  -0.182   0.910  0.00  0.00     0.084 H 
ENDROOT
BRANCH   1  16
ATOM     16  C1  <0> d          -0.019   1.526   0.010  0.00  0.00    -0.071 C 
ATOM     17  H3  <0> d           1.004   1.903   0.003  0.00  0.00     0.028 H 
ATOM     18  H4  <0> d          -0.546   1.887  -0.873  0.00  0.00     0.028 H 
ATOM     19  H5  <0> d          -0.529   1.877   0.907  0.00  0.00     0.028 H 
ENDBRANCH   1  16
BRANCH   8  20
ATOM     20  O1  <0> d          -2.124  -0.060  -1.145  0.00  0.00    -0.395 OA
ATOM     21  H13 <0> d          -3.043  -0.358  -1.204  0.00  0.00     0.210 HD
ENDBRANCH   8  20
BRANCH   6  22
ATOM     22  C8  <0> d          -2.848  -2.593   0.015  0.00  0.00    -0.071 C 
ATOM     23  H14 <0> d          -3.358  -2.241   0.912  0.00  0.00     0.028 H 
ATOM     24  H15 <0> d          -3.375  -2.232  -0.868  0.00  0.00     0.028 H 
ATOM     25  H16 <0> d          -2.833  -3.683   0.009  0.00  0.00     0.028 H 
ENDBRANCH   6  22
TORSDOF 3
