REMARK  8 active torsions:
REMARK  status: ('A' for Active; 'I' for Inactive)
REMARK    1  A    between atoms: C1_1  and  C2_2 
REMARK    2  A    between atoms: C2_2  and  C3_3 
REMARK    3  A    between atoms: C3_3  and  C4_4 
REMARK    4  A    between atoms: C4_4  and  C5_6 
REMARK    5  A    between atoms: C4_4  and  C6_7 
REMARK    6  A    between atoms: C6_7  and  C7_9 
REMARK    7  A    between atoms: C6_7  and  O1_11 
REMARK    8  A    between atoms: C7_9  and  C8_10 
ROOT
ATOM      1  C4  <0> d          -0.729   1.579   1.267  0.00  0.00    -0.033 C 
ATOM      2  H1  <0> d          -1.776   1.277   1.232  0.00  0.00     0.043 H 
ENDROOT
BRANCH   1   3
ATOM      3  C3  <0> d          -0.013   1.086   0.008  0.00  0.00    -0.060 C 
ATOM      4  H8  <0> d           0.002  -0.004   0.002  0.00  0.00     0.033 H 
ATOM      5  H9  <0> d           1.010   1.463   0.000  0.00  0.00     0.033 H 
BRANCH   3   6
ATOM      6  C2  <0> d          -0.753   1.593  -1.232  0.00  0.00    -0.068 C 
ATOM      7  H6  <0> d          -1.775   1.215  -1.224  0.00  0.00     0.032 H 
ATOM      8  H7  <0> d          -0.767   2.683  -1.226  0.00  0.00     0.032 H 
BRANCH   6   9
ATOM      9  C1  <0> d          -0.037   1.099  -2.490  0.00  0.00    -0.077 C 
ATOM     10  H3  <0> d           0.986   1.476  -2.498  0.00  0.00     0.027 H 
ATOM     11  H4  <0> d          -0.022   0.009  -2.496  0.00  0.00     0.027 H 
ATOM     12  H5  <0> d          -0.564   1.460  -3.373  0.00  0.00     0.027 H 
ENDBRANCH   6   9
ENDBRANCH   3   6
ENDBRANCH   1   3
BRANCH   1  13
ATOM     13  C5  <0> d          -0.641   3.105   1.339  0.00  0.00    -0.071 C 
ATOM     14  H10 <0> d           0.406   3.407   1.374  0.00  0.00     0.028 H 
ATOM     15  H11 <0> d          -1.115   3.538   0.458  0.00  0.00     0.028 H 
ATOM     16  H12 <0> d          -1.151   3.457   2.235  0.00  0.00     0.028 H 
ENDBRANCH   1  13
BRANCH   1  17
ATOM     17  C6  <0> d          -0.064   0.971   2.503  0.00  0.00     0.038 C 
ATOM     18  H2  <0> d           0.983   1.274   2.539  0.00  0.00     0.083 H 
BRANCH  17  19
ATOM     19  C7  <0> d          -0.780   1.465   3.762  0.00  0.00    -0.044 C 
ATOM     20  H13 <0> d          -0.795   2.555   3.768  0.00  0.00     0.036 H 
ATOM     21  H14 <0> d          -1.802   1.087   3.770  0.00  0.00     0.036 H 
BRANCH  19  22
ATOM     22  C8  <0> d          -0.040   0.958   5.002  0.00  0.00    -0.074 C 
ATOM     23  H15 <0> d          -0.025  -0.132   4.996  0.00  0.00     0.027 H 
ATOM     24  H16 <0> d           0.983   1.335   4.994  0.00  0.00     0.027 H 
ATOM     25  H17 <0> d          -0.550   1.309   5.899  0.00  0.00     0.027 H 
ENDBRANCH  19  22
ENDBRANCH  17  19
BRANCH  17  26
ATOM     26  O1  <0> d          -0.146  -0.454   2.436  0.00  0.00    -0.395 OA
ATOM     27  H18 <0> d          -1.050  -0.794   2.402  0.00  0.00     0.210 HD
ENDBRANCH  17  26
ENDBRANCH   1  17
TORSDOF 8
