REMARK  2 active torsions:
REMARK  status: ('A' for Active; 'I' for Inactive)
REMARK    1  A    between atoms: C1_1  and  N1_2 
REMARK    2  A    between atoms: C3_4  and  C6_9 
ROOT
ATOM      1  N1  <0> d           0.002  -0.004   0.002  0.00  0.00    -0.356 N 
ATOM      2  C2  <0> d          -1.198  -0.849   0.015  0.00  0.00     0.010 C 
ATOM      3  C3  <0> d          -0.712  -2.252   0.432  0.00  0.00     0.054 C 
ATOM      4  H1  <0> d          -0.797  -2.386   1.511  0.00  0.00     0.059 H 
ATOM      5  C4  <0> d           0.770  -2.219  -0.007  0.00  0.00     0.023 C 
ATOM      6  C5  <0> d           1.122  -0.747  -0.012  0.00  0.00     0.220 C 
ATOM      7  O1  <0> d           2.250  -0.303  -0.028  0.00  0.00    -0.273 OA
ATOM      8  H5  <0> d          -1.920  -0.468   0.737  0.00  0.00     0.065 H 
ATOM      9  H6  <0> d          -1.643  -0.887  -0.980  0.00  0.00     0.065 H 
ATOM     10  H7  <0> d           0.882  -2.641  -1.005  0.00  0.00     0.048 H 
ATOM     11  H8  <0> d           1.394  -2.757   0.707  0.00  0.00     0.048 H 
ENDROOT
BRANCH   1  12
ATOM     12  C1  <0> d          -0.018   1.461   0.010  0.00  0.00    -0.016 C 
ATOM     13  H2  <0> d           1.005   1.838   0.002  0.00  0.00     0.056 H 
ATOM     14  H3  <0> d          -0.545   1.822  -0.873  0.00  0.00     0.056 H 
ATOM     15  H4  <0> d          -0.528   1.812   0.907  0.00  0.00     0.056 H 
ENDBRANCH   1  12
BRANCH   3  16
ATOM     16  C6  <0> d          -1.468  -3.329  -0.303  0.00  0.00     0.179 C 
ATOM     17  O2  <0> d          -2.398  -3.035  -1.016  0.00  0.00    -0.648 OA
ATOM     18  O3  <0> d          -1.107  -4.615  -0.166  0.00  0.00    -0.648 OA
ENDBRANCH   3  16
TORSDOF 2
