REMARK  1 active torsions:
REMARK  status: ('A' for Active; 'I' for Inactive)
REMARK    1  A    between atoms: N3_7  and  N4_8 
ROOT
ATOM      1  C1  <0> d           0.002  -0.004   0.002  0.00  0.00     0.105 A 
ATOM      2  N1  <0> d           1.232  -0.405  -0.012  0.00  0.00    -0.164 NA
ATOM      3  N2  <0> d           2.060   0.726  -0.014  0.00  0.00    -0.226 N 
ATOM      4  H1  <0> d           3.030   0.729  -0.023  0.00  0.00     0.194 HD
ATOM      5  C2  <0> d           1.257   1.811  -0.000  0.00  0.00     0.358 A 
ATOM      6  O1  <0> d           1.617   2.975   0.003  0.00  0.00    -0.243 OA
ATOM      7  N3  <0> d          -0.017   1.369   0.010  0.00  0.00    -0.220 N 
ATOM      8  H2  <0> d          -0.868  -0.644   0.007  0.00  0.00     0.148 H 
ENDROOT
BRANCH   7   9
ATOM      9  N4  <0> d          -1.135   2.154   0.019  0.00  0.00    -0.238 NA
ATOM     10  H3  <0> d          -1.972   1.591   0.021  0.00  0.00     0.143 HD
ATOM     11  H4  <0> d          -1.125   2.788   0.804  0.00  0.00     0.143 HD
ENDBRANCH   7   9
TORSDOF 1
