REMARK  1 active torsions:
REMARK  status: ('A' for Active; 'I' for Inactive)
REMARK    1  A    between atoms: C2_2  and  C6_9 
ROOT
ATOM      1  C1  <0> d           2.473   3.730   0.004  0.00  0.00    -0.023 A 
ATOM      2  C2  <0> d           1.238   3.066   0.007  0.00  0.00     0.061 A 
ATOM      3  C3  <0> d           0.065   3.821   0.022  0.00  0.00     0.022 A 
ATOM      4  N1  <0> d           0.113   5.136   0.029  0.00  0.00    -0.229 NA
ATOM      5  C4  <0> d           1.260   5.792   0.022  0.00  0.00     0.248 A 
ATOM      6  C5  <0> d           2.473   5.114   0.007  0.00  0.00     0.175 A 
ATOM      7  F1  <0> d           3.638   5.797  -0.000  0.00  0.00    -0.201 F 
ATOM      8  F2  <0> d           1.254   7.143   0.029  0.00  0.00    -0.181 F 
ATOM      9  H1  <0> d           3.400   3.177  -0.003  0.00  0.00     0.090 H 
ATOM     10  H2  <0> d          -0.893   3.321   0.028  0.00  0.00     0.116 H 
ENDROOT
BRANCH   2  11
ATOM     11  C6  <0> d           1.181   1.591  -0.001  0.00  0.00     0.210 C 
ATOM     12  O1  <0> d           2.209   0.943  -0.014  0.00  0.00    -0.644 OA
ATOM     13  O2  <0> d          -0.011   0.963   0.007  0.00  0.00    -0.644 OA
ENDBRANCH   2  11
TORSDOF 1
