REMARK  2 active torsions:
REMARK  status: ('A' for Active; 'I' for Inactive)
REMARK    1  A    between atoms: C1_1  and  C2_2 
REMARK    2  A    between atoms: C2_2  and  C3_3 
ROOT
ATOM      1  C3  <0> d           3.105   2.413  -1.163  0.00  0.00     0.039 A 
ATOM      2  C4  <0> d           1.850   1.834  -1.207  0.00  0.00    -0.007 A 
ATOM      3  C5  <0> d           1.219   1.531  -0.001  0.00  0.00     0.181 A 
ATOM      4  N1  <0> d           1.841   1.812   1.139  0.00  0.00    -0.329 N 
ATOM      5  C6  <0> d           3.039   2.360   1.135  0.00  0.00     0.066 A 
ATOM      6  N2  <0> d           3.662   2.659   0.013  0.00  0.00    -0.248 NA
ATOM      7  O1  <0> d          -0.011   0.963   0.007  0.00  0.00    -0.172 OA
ATOM      8  H6  <0> d           1.418   1.643  -2.088  0.00  0.00     0.093 H 
ATOM      9  H7  <0> d           3.475   2.548   2.015  0.00  0.00     0.143 H 
ATOM     10  H8  <0> d           1.344   1.582   2.093  0.00  0.00     0.168 HD
ENDROOT
BRANCH   1  11
ATOM     11  C2  <0> d           3.829   2.760  -2.438  0.00  0.00    -0.028 C 
ATOM     12  H4  <0> d           3.172   2.565  -3.298  0.00  0.00     0.041 H 
ATOM     13  H5  <0> d           4.737   2.145  -2.524  0.00  0.00     0.041 H 
BRANCH  11  14
ATOM     14  C1  <0> d           4.216   4.240  -2.418  0.00  0.00    -0.071 C 
ATOM     15  H1  <0> d           4.745   4.494  -3.349  0.00  0.00     0.028 H 
ATOM     16  H2  <0> d           4.873   4.436  -1.558  0.00  0.00     0.028 H 
ATOM     17  H3  <0> d           3.308   4.856  -2.333  0.00  0.00     0.028 H 
ENDBRANCH  11  14
ENDBRANCH   1  11
TORSDOF 2
