REMARK  2 active torsions:
REMARK  status: ('A' for Active; 'I' for Inactive)
REMARK    1  A    between atoms: C1_1  and  C2_2 
REMARK    2  A    between atoms: C7_9  and  C8_11 
ROOT
ATOM      1  C2  <0> d           2.390   0.026  -0.021  0.00  0.00    -0.057 A 
ATOM      2  C3  <0> d           1.175  -0.676  -0.013  0.00  0.00    -0.060 A 
ATOM      3  C4  <0> d           0.002  -0.004   0.002  0.00  0.00     0.006 A 
ATOM      4  N1  <0> d          -0.016   1.355   0.009  0.00  0.00    -0.225 N 
ATOM      5  C5  <0> d           1.150   2.067   0.002  0.00  0.00     0.152 A 
ATOM      6  C6  <0> d           2.381   1.387  -0.013  0.00  0.00    -0.031 A 
ATOM      7  N2  <0> d           0.828   3.356   0.012  0.00  0.00    -0.213 NA
ATOM      8  C7  <0> d          -0.490   3.487   0.025  0.00  0.00     0.145 A 
ATOM      9  N3  <0> d          -1.051   2.301   0.030  0.00  0.00    -0.151 NA
ATOM     10  H4  <0> d           1.177  -1.756  -0.019  0.00  0.00     0.086 H 
ATOM     11  H5  <0> d          -0.928  -0.552   0.008  0.00  0.00     0.114 H 
ATOM     12  H6  <0> d           3.309   1.940  -0.019  0.00  0.00     0.090 H 
ENDROOT
BRANCH   1  13
ATOM     13  C1  <0> d           3.697  -0.724  -0.037  0.00  0.00    -0.051 C 
ATOM     14  H1  <0> d           4.003  -0.899  -1.068  0.00  0.00     0.033 H 
ATOM     15  H2  <0> d           4.460  -0.135   0.473  0.00  0.00     0.033 H 
ATOM     16  H3  <0> d           3.575  -1.679   0.473  0.00  0.00     0.033 H 
ENDBRANCH   1  13
BRANCH   8  17
ATOM     17  C8  <0> d          -1.232   4.799   0.040  0.00  0.00    -0.018 C 
ATOM     18  H7  <0> d          -1.421   5.120  -0.985  0.00  0.00     0.038 H 
ATOM     19  H8  <0> d          -2.181   4.674   0.562  0.00  0.00     0.038 H 
ATOM     20  H9  <0> d          -0.632   5.550   0.552  0.00  0.00     0.038 H 
ENDBRANCH   8  17
TORSDOF 2
