REMARK  0 active torsions:
REMARK  status: ('A' for Active; 'I' for Inactive)
ROOT
ATOM      1  C1  <0> d           3.311  -1.612  -0.040  0.00  0.00    -0.081 A 
ATOM      2  C2  <0> d           4.034  -0.412  -0.040  0.00  0.00    -0.081 A 
ATOM      3  C3  <0> d           3.419   0.796  -0.027  0.00  0.00    -0.051 A 
ATOM      4  C4  <0> d           2.012   0.856  -0.013  0.00  0.00     0.117 A 
ATOM      5  C5  <0> d           1.246  -0.416  -0.012  0.00  0.00     0.117 A 
ATOM      6  C6  <0> d           1.955  -1.632  -0.026  0.00  0.00    -0.051 A 
ATOM      7  N1  <0> d           0.002  -0.004   0.002  0.00  0.00    -0.103 NA
ATOM      8  O1  <0> d          -0.014   1.210   0.009  0.00  0.00    -0.106 OA
ATOM      9  N2  <0> d           1.067   1.763   0.001  0.00  0.00    -0.103 NA
ATOM     10  H1  <0> d           3.849  -2.548  -0.050  0.00  0.00     0.083 H 
ATOM     11  H2  <0> d           5.113  -0.451  -0.052  0.00  0.00     0.083 H 
ATOM     12  H3  <0> d           4.003   1.705  -0.028  0.00  0.00     0.087 H 
ATOM     13  H4  <0> d           1.425  -2.573  -0.026  0.00  0.00     0.087 H 
ENDROOT
TORSDOF 0
