REMARK  3 active torsions:
REMARK  status: ('A' for Active; 'I' for Inactive)
REMARK    1  A    between atoms: C1_1  and  C2_2 
REMARK    2  A    between atoms: C2_2  and  N1_3 
REMARK    3  A    between atoms: C4_5  and  C6_8 
ROOT
ATOM      1  N1  <0> d          -1.372  -0.511   0.012  0.00  0.00    -0.281 N 
ATOM      2  C3  <0> d          -1.902  -1.360  -0.883  0.00  0.00     0.016 A 
ATOM      3  C4  <0> d          -3.213  -1.585  -0.513  0.00  0.00     0.077 A 
ATOM      4  C5  <0> d          -3.455  -0.821   0.651  0.00  0.00     0.040 A 
ATOM      5  N2  <0> d          -2.356  -0.188   0.954  0.00  0.00    -0.184 NA
ATOM      6  H6  <0> d          -1.395  -1.789  -1.734  0.00  0.00     0.115 H 
ATOM      7  H7  <0> d          -4.387  -0.770   1.195  0.00  0.00     0.119 H 
ENDROOT
BRANCH   1   8
ATOM      8  C2  <0> d           0.002  -0.004   0.002  0.00  0.00     0.013 C 
ATOM      9  H4  <0> d           0.512  -0.356  -0.895  0.00  0.00     0.066 H 
ATOM     10  H5  <0> d           0.529  -0.365   0.885  0.00  0.00     0.066 H 
BRANCH   8  11
ATOM     11  C1  <0> d          -0.019   1.526   0.010  0.00  0.00    -0.059 C 
ATOM     12  H1  <0> d           1.004   1.903   0.003  0.00  0.00     0.029 H 
ATOM     13  H2  <0> d          -0.546   1.887  -0.873  0.00  0.00     0.029 H 
ATOM     14  H3  <0> d          -0.529   1.877   0.907  0.00  0.00     0.029 H 
ENDBRANCH   8  11
ENDBRANCH   1   8
BRANCH   3  15
ATOM     15  C6  <0> d          -4.180  -2.455  -1.204  0.00  0.00     0.212 C 
ATOM     16  O1  <0> d          -3.845  -3.063  -2.202  0.00  0.00    -0.644 OA
ATOM     17  O2  <0> d          -5.436  -2.577  -0.731  0.00  0.00    -0.644 OA
ENDBRANCH   3  15
TORSDOF 3
