REMARK  3 active torsions:
REMARK  status: ('A' for Active; 'I' for Inactive)
REMARK    1  A    between atoms: C1_1  and  C2_2 
REMARK    2  A    between atoms: C2_2  and  C3_4 
REMARK    3  A    between atoms: C6_7  and  O2_11 
ROOT
ATOM      1  C3  <0> d          -1.233   3.147   0.027  0.00  0.00     0.012 A 
ATOM      2  C4  <0> d          -1.214   1.746   0.023  0.00  0.00    -0.067 A 
ATOM      3  C5  <0> d          -0.012   1.076   0.011  0.00  0.00    -0.047 A 
ATOM      4  C6  <0> d           1.183   1.786  -0.006  0.00  0.00     0.104 A 
ATOM      5  C7  <0> d           1.171   3.179  -0.007  0.00  0.00     0.150 A 
ATOM      6  C8  <0> d          -0.028   3.859   0.009  0.00  0.00    -0.029 A 
ATOM      7  F1  <0> d           2.335   3.864  -0.025  0.00  0.00    -0.203 F 
ATOM      8  H4  <0> d          -2.142   1.193   0.032  0.00  0.00     0.085 H 
ATOM      9  H5  <0> d           0.003  -0.004   0.012  0.00  0.00     0.087 H 
ATOM     10  H6  <0> d          -0.037   4.939   0.008  0.00  0.00     0.089 H 
ENDROOT
BRANCH   1  11
ATOM     11  C2  <0> d          -2.514   3.866   0.045  0.00  0.00     0.155 C 
ATOM     12  O1  <0> d          -2.529   5.074   0.145  0.00  0.00    -0.293 OA
BRANCH  11  13
ATOM     13  C1  <0> d          -3.808   3.102  -0.060  0.00  0.00    -0.017 C 
ATOM     14  H1  <0> d          -3.618   2.120  -0.051  0.00  0.00     0.038 H 
ATOM     15  H2  <0> d          -4.450   3.355   0.784  0.00  0.00     0.038 H 
ATOM     16  H3  <0> d          -4.311   3.366  -0.990  0.00  0.00     0.038 H 
ENDBRANCH  11  13
ENDBRANCH   1  11
BRANCH   4  17
ATOM     17  O2  <0> d           2.365   1.120  -0.024  0.00  0.00    -0.358 OA
ATOM     18  H7  <0> d           2.695   0.927  -0.912  0.00  0.00     0.217 HD
ENDBRANCH   4  17
TORSDOF 3
