REMARK  4 active torsions:
REMARK  status: ('A' for Active; 'I' for Inactive)
REMARK    1  A    between atoms: C1_1  and  C2_2 
REMARK    2  A    between atoms: C2_2  and  C3_3 
REMARK    3  A    between atoms: C3_3  and  O1_5 
REMARK    4  A    between atoms: C3_3  and  S1_6 
ROOT
ATOM      1  C3  <0> d          -0.729   1.579   1.267  0.00  0.00     0.149 C 
ATOM      2  H1  <0> d          -1.804   1.436   1.081  0.00  0.00     0.112 H 
ENDROOT
BRANCH   1   3
ATOM      3  C2  <0> d          -0.013   1.086   0.008  0.00  0.00    -0.029 C 
ATOM      4  H5  <0> d           0.002  -0.014   0.002  0.00  0.00     0.037 H 
ATOM      5  H6  <0> d           1.019   1.466   0.000  0.00  0.00     0.037 H 
BRANCH   3   6
ATOM      6  C1  <0> d          -0.753   1.593  -1.232  0.00  0.00    -0.073 C 
ATOM      7  H2  <0> d          -0.238   1.238  -2.136  0.00  0.00     0.027 H 
ATOM      8  H3  <0> d          -0.768   2.693  -1.225  0.00  0.00     0.027 H 
ATOM      9  H4  <0> d          -1.785   1.212  -1.224  0.00  0.00     0.027 H 
ENDBRANCH   3   6
ENDBRANCH   1   3
BRANCH   1  10
ATOM     10  O1  <0> d          -0.647   3.004   1.334  0.00  0.00    -0.378 OA
ATOM     11  H7  <0> d          -1.107   3.543   2.175  0.00  0.00     0.211 HD
ENDBRANCH   1  10
BRANCH   1  12
ATOM     12  S1  <0> d           0.060   0.859   2.733  0.00  0.00     0.131 S 
ATOM     13  O2  <0> d          -0.168  -0.543   2.772  0.00  0.00    -0.593 OA
ATOM     14  O3  <0> d           1.370   1.384   2.892  0.00  0.00    -0.593 OA
ATOM     15  O4  <0> d          -0.727   1.413   3.912  0.00  0.00    -0.593 OA
ENDBRANCH   1  12
TORSDOF 4
