REMARK  1 active torsions:
REMARK  status: ('A' for Active; 'I' for Inactive)
REMARK    1  A    between atoms: C6_6  and  N1_7 
ROOT
ATOM      1  C1  <0> d          -1.251   3.037   0.030  0.00  0.00    -0.055 A 
ATOM      2  C2  <0> d          -2.458   3.710   0.033  0.00  0.00    -0.041 A 
ATOM      3  C3  <0> d          -3.647   3.003   0.035  0.00  0.00     0.154 A 
ATOM      4  C4  <0> d          -3.631   1.616   0.028  0.00  0.00     0.157 A 
ATOM      5  C5  <0> d          -2.425   0.939   0.019  0.00  0.00    -0.017 A 
ATOM      6  C6  <0> d          -1.231   1.648   0.017  0.00  0.00     0.028 A 
ATOM      7  F1  <0> d          -4.793   0.927   0.030  0.00  0.00    -0.203 F 
ATOM      8  F2  <0> d          -4.825   3.664   0.043  0.00  0.00    -0.203 F 
ATOM      9  H1  <0> d          -0.324   3.590   0.033  0.00  0.00     0.087 H 
ATOM     10  H2  <0> d          -2.472   4.790   0.039  0.00  0.00     0.088 H 
ATOM     11  H3  <0> d          -2.412  -0.141   0.013  0.00  0.00     0.091 H 
ENDROOT
BRANCH   6  12
ATOM     12  N1  <0> d          -0.011   0.966   0.007  0.00  0.00    -0.399 N 
ATOM     13  H4  <0> d           0.002  -0.004   0.002  0.00  0.00     0.156 HD
ATOM     14  H5  <0> d           0.822   1.462   0.002  0.00  0.00     0.156 HD
ENDBRANCH   6  12
TORSDOF 1
