REMARK  1 active torsions:
REMARK  status: ('A' for Active; 'I' for Inactive)
REMARK    1  A    between atoms: C1_1  and  C2_2 
ROOT
ATOM      1  C2  <0> d          -0.718   1.572   1.248  0.00  0.00    -0.025 A 
ATOM      2  C3  <0> d          -0.002   1.805   2.401  0.00  0.00    -0.074 A 
ATOM      3  C4  <0> d          -0.638   2.253   3.550  0.00  0.00    -0.081 A 
ATOM      4  C5  <0> d          -1.997   2.471   3.551  0.00  0.00    -0.065 A 
ATOM      5  C6  <0> d          -2.736   2.239   2.390  0.00  0.00     0.072 A 
ATOM      6  C7  <0> d          -2.092   1.791   1.226  0.00  0.00     0.123 A 
ATOM      7  O1  <0> d          -3.022   1.654   0.260  0.00  0.00    -0.209 OA
ATOM      8  N1  <0> d          -4.293   2.013   0.762  0.00  0.00    -0.083 NA
ATOM      9  C8  <0> d          -4.164   2.369   2.060  0.00  0.00     0.303 A 
ATOM     10  O2  <0> d          -5.053   2.736   2.806  0.00  0.00    -0.263 OA
ATOM     11  H4  <0> d           1.065   1.637   2.412  0.00  0.00     0.084 H 
ATOM     12  H5  <0> d          -0.064   2.432   4.447  0.00  0.00     0.083 H 
ATOM     13  H6  <0> d          -2.490   2.819   4.447  0.00  0.00     0.085 H 
ENDROOT
BRANCH   1  14
ATOM     14  C1  <0> d          -0.013   1.086   0.008  0.00  0.00    -0.049 C 
ATOM     15  H1  <0> d           1.061   0.972   0.218  0.00  0.00     0.033 H 
ATOM     16  H2  <0> d          -0.153   1.815  -0.803  0.00  0.00     0.033 H 
ATOM     17  H3  <0> d          -0.432   0.115  -0.295  0.00  0.00     0.033 H 
ENDBRANCH   1  14
TORSDOF 1
