REMARK  6 active torsions:
REMARK  status: ('A' for Active; 'I' for Inactive)
REMARK    1  A    between atoms: C1_1  and  C2_2 
REMARK    2  A    between atoms: C2_2  and  C3_3 
REMARK    3  A    between atoms: C3_3  and  O1_4 
REMARK    4  A    between atoms: O1_4  and  C4_5 
REMARK    5  A    between atoms: C4_5  and  C5_6 
REMARK    6  A    between atoms: C5_6  and  C6_7 
ROOT
ATOM      1  O1  <0> d          -0.017   1.425   0.010  0.00  0.00    -0.391 OA
ENDROOT
BRANCH   1   2
ATOM      2  C3  <0> d           0.002  -0.004   0.002  0.00  0.00     0.019 C 
ATOM      3  H6  <0> d           0.512  -0.356  -0.895  0.00  0.00     0.074 H 
ATOM      4  H7  <0> d           0.529  -0.365   0.885  0.00  0.00     0.074 H 
BRANCH   2   5
ATOM      5  C2  <0> d          -1.433  -0.534   0.013  0.00  0.00    -0.049 C 
ATOM      6  H4  <0> d          -1.944  -0.182   0.910  0.00  0.00     0.035 H 
ATOM      7  H5  <0> d          -1.960  -0.173  -0.870  0.00  0.00     0.035 H 
BRANCH   5   8
ATOM      8  C1  <0> d          -1.413  -2.063   0.004  0.00  0.00    -0.075 C 
ATOM      9  H1  <0> d          -0.885  -2.425   0.887  0.00  0.00     0.027 H 
ATOM     10  H2  <0> d          -2.435  -2.441   0.012  0.00  0.00     0.027 H 
ATOM     11  H3  <0> d          -0.902  -2.415  -0.892  0.00  0.00     0.027 H 
ENDBRANCH   5   8
ENDBRANCH   2   5
ENDBRANCH   1   2
BRANCH   1  12
ATOM     12  C4  <0> d           1.280   2.024   0.001  0.00  0.00     0.019 C 
ATOM     13  H8  <0> d           1.834   1.705   0.884  0.00  0.00     0.074 H 
ATOM     14  H9  <0> d           1.817   1.714  -0.896  0.00  0.00     0.074 H 
BRANCH  12  15
ATOM     15  C5  <0> d           1.139   3.547   0.010  0.00  0.00    -0.049 C 
ATOM     16  H10 <0> d           0.585   3.866  -0.873  0.00  0.00     0.035 H 
ATOM     17  H11 <0> d           0.602   3.857   0.907  0.00  0.00     0.035 H 
BRANCH  15  18
ATOM     18  C6  <0> d           2.528   4.188   0.000  0.00  0.00    -0.075 C 
ATOM     19  H12 <0> d           3.081   3.869   0.883  0.00  0.00     0.027 H 
ATOM     20  H13 <0> d           3.064   3.879  -0.896  0.00  0.00     0.027 H 
ATOM     21  H14 <0> d           2.427   5.274   0.007  0.00  0.00     0.027 H 
ENDBRANCH  15  18
ENDBRANCH  12  15
ENDBRANCH   1  12
TORSDOF 6
