REMARK  0 active torsions:
REMARK  status: ('A' for Active; 'I' for Inactive)
ROOT
ATOM      1  C1  <0> d          -0.017   1.388   0.010  0.00  0.00    -0.024 A 
ATOM      2  C2  <0> d          -1.250   2.021   0.019  0.00  0.00    -0.038 A 
ATOM      3  C3  <0> d          -2.390   1.228   0.020  0.00  0.00     0.148 A 
ATOM      4  N1  <0> d          -2.278  -0.087   0.012  0.00  0.00    -0.136 NA
ATOM      5  N2  <0> d          -1.138  -0.676   0.004  0.00  0.00    -0.120 NA
ATOM      6  C4  <0> d           0.002  -0.004   0.002  0.00  0.00     0.221 A 
ATOM      7  O1  <0> d           1.185  -0.669  -0.012  0.00  0.00    -0.168 OA
ATOM      8 Cl1  <0> d          -3.962   1.965   0.032  0.00  0.00    -0.061 Cl
ATOM      9  H1  <0> d           0.901   1.958   0.004  0.00  0.00     0.090 H 
ATOM     10  H2  <0> d          -1.323   3.099   0.026  0.00  0.00     0.088 H 
ENDROOT
TORSDOF 0
