REMARK  5 active torsions:
REMARK  status: ('A' for Active; 'I' for Inactive)
REMARK    1  A    between atoms: C1_1  and  N1_2 
REMARK    2  A    between atoms: C2_3  and  C6_9 
REMARK    3  A    between atoms: C4_6  and  S1_7 
REMARK    4  A    between atoms: S1_7  and  C5_8 
REMARK    5  A    between atoms: C6_9  and  O1_10 
ROOT
ATOM      1  N1  <0> d          -1.225   4.367   2.094  0.00  0.00    -0.331 N 
ATOM      2  C2  <0> d          -0.921   5.587   1.532  0.00  0.00     0.054 A 
ATOM      3  C3  <0> d          -0.269   5.338   0.384  0.00  0.00     0.029 A 
ATOM      4  N2  <0> d          -0.165   4.006   0.236  0.00  0.00    -0.235 NA
ATOM      5  C4  <0> d          -0.741   3.411   1.254  0.00  0.00     0.168 A 
ATOM      6  H4  <0> d           0.110   6.081  -0.302  0.00  0.00     0.118 H 
ENDROOT
BRANCH   2   7
ATOM      7  C6  <0> d          -1.255   6.942   2.098  0.00  0.00     0.056 C 
ATOM      8  H8  <0> d          -2.346   7.038   2.201  0.00  0.00     0.083 H 
ATOM      9  H9  <0> d          -0.782   7.055   3.085  0.00  0.00     0.083 H 
BRANCH   7  10
ATOM     10  O1  <0> d          -0.769   7.959   1.219  0.00  0.00    -0.395 OA
ATOM     11  H10 <0> d          -0.921   9.020   1.467  0.00  0.00     0.209 HD
ENDBRANCH   7  10
ENDBRANCH   2   7
BRANCH   1  12
ATOM     12  C1  <0> d          -1.935   4.141   3.355  0.00  0.00    -0.012 C 
ATOM     13  H1  <0> d          -2.200   5.109   3.805  0.00  0.00     0.057 H 
ATOM     14  H2  <0> d          -1.288   3.580   4.045  0.00  0.00     0.057 H 
ATOM     15  H3  <0> d          -2.852   3.564   3.161  0.00  0.00     0.057 H 
ENDBRANCH   1  12
BRANCH   5  16
ATOM     16  S1  <0> d          -0.860   1.669   1.497  0.00  0.00    -0.096 SA
BRANCH  16  17
ATOM     17  C5  <0> d          -0.013   1.086   0.008  0.00  0.00    -0.027 C 
ATOM     18  H5  <0> d           0.002  -0.014   0.002  0.00  0.00     0.042 H 
ATOM     19  H6  <0> d           1.019   1.467   0.000  0.00  0.00     0.042 H 
ATOM     20  H7  <0> d          -0.545   1.450  -0.883  0.00  0.00     0.042 H 
ENDBRANCH  16  17
ENDBRANCH   5  16
TORSDOF 5
