REMARK  1 active torsions:
REMARK  status: ('A' for Active; 'I' for Inactive)
REMARK    1  A    between atoms: C6_7  and  C9_12 
ROOT
ATOM      1  C1  <0> d          -2.627   0.989   2.672  0.00  0.00    -0.064 C 
ATOM      2  C2  <0> d          -3.176   1.980   1.625  0.00  0.00    -0.061 C 
ATOM      3  C3  <0> d          -1.990   2.386   0.736  0.00  0.00    -0.050 C 
ATOM      4  H1  <0> d          -1.820   3.462   0.751  0.00  0.00     0.040 H 
ATOM      5  C4  <0> d          -2.224   1.838  -0.692  0.00  0.00    -0.060 C 
ATOM      6  C5  <0> d          -0.785   1.610  -1.220  0.00  0.00    -0.052 C 
ATOM      7  C6  <0> d          -0.013   1.086   0.008  0.00  0.00     0.034 C 
ATOM      8  H2  <0> d           0.002  -0.004   0.002  0.00  0.00     0.057 H 
ATOM      9  C7  <0> d          -0.759   1.595   1.252  0.00  0.00    -0.038 C 
ATOM     10  H3  <0> d          -0.114   2.191   1.897  0.00  0.00     0.042 H 
ATOM     11  C8  <0> d          -1.369   0.386   2.000  0.00  0.00    -0.060 C 
ATOM     12  H4  <0> d          -3.359   0.209   2.880  0.00  0.00     0.033 H 
ATOM     13  H5  <0> d          -2.355   1.513   3.588  0.00  0.00     0.033 H 
ATOM     14  H6  <0> d          -3.946   1.497   1.023  0.00  0.00     0.033 H 
ATOM     15  H7  <0> d          -3.587   2.858   2.123  0.00  0.00     0.033 H 
ATOM     16  H8  <0> d          -2.775   0.898  -0.658  0.00  0.00     0.033 H 
ATOM     17  H9  <0> d          -2.750   2.570  -1.304  0.00  0.00     0.033 H 
ATOM     18  H10 <0> d          -0.354   2.548  -1.570  0.00  0.00     0.034 H 
ATOM     19  H11 <0> d          -0.784   0.867  -2.017  0.00  0.00     0.034 H 
ATOM     20  H12 <0> d          -1.647  -0.401   1.298  0.00  0.00     0.033 H 
ATOM     21  H13 <0> d          -0.675   0.007   2.750  0.00  0.00     0.033 H 
ENDROOT
BRANCH   7  22
ATOM     22  C9  <0> d           1.396   1.620  -0.003  0.00  0.00     0.177 C 
ATOM     23  O1  <0> d           1.780   2.329   0.897  0.00  0.00    -0.648 OA
ATOM     24  O2  <0> d           2.225   1.309  -1.012  0.00  0.00    -0.648 OA
ENDBRANCH   7  22
TORSDOF 1
