REMARK  1 active torsions:
REMARK  status: ('A' for Active; 'I' for Inactive)
REMARK    1  A    between atoms: C2_2  and  C3_3 
ROOT
ATOM      1  C3  <0> d           1.289  -0.724  -0.014  0.00  0.00     0.066 A 
ATOM      2  C4  <0> d           1.312  -2.140  -0.028  0.00  0.00     0.003 A 
ATOM      3  C5  <0> d           0.139  -2.903  -0.027  0.00  0.00    -0.070 A 
ATOM      4  C6  <0> d           0.221  -4.263  -0.041  0.00  0.00    -0.082 A 
ATOM      5  C7  <0> d           1.456  -4.908  -0.056  0.00  0.00    -0.082 A 
ATOM      6  C8  <0> d           2.618  -4.196  -0.058  0.00  0.00    -0.072 A 
ATOM      7  C9  <0> d           2.569  -2.795  -0.044  0.00  0.00    -0.022 A 
ATOM      8  C10 <0> d           3.734  -2.004  -0.045  0.00  0.00    -0.055 A 
ATOM      9  C11 <0> d           3.609  -0.647  -0.031  0.00  0.00     0.004 A 
ATOM     10  N1  <0> d           2.428  -0.050  -0.021  0.00  0.00    -0.260 NA
ATOM     11  H4  <0> d          -0.826  -2.417  -0.015  0.00  0.00     0.084 H 
ATOM     12  H5  <0> d          -0.685  -4.851  -0.040  0.00  0.00     0.083 H 
ATOM     13  H6  <0> d           1.493  -5.987  -0.067  0.00  0.00     0.083 H 
ATOM     14  H7  <0> d           3.570  -4.708  -0.069  0.00  0.00     0.084 H 
ATOM     15  H8  <0> d           4.711  -2.465  -0.056  0.00  0.00     0.087 H 
ATOM     16  H9  <0> d           4.502  -0.039  -0.032  0.00  0.00     0.114 H 
ENDROOT
BRANCH   1  17
ATOM     17  C2  <0> d           0.002  -0.004   0.002  0.00  0.00    -0.063 C 
ATOM     18  C1  <0> d          -0.016   1.324   0.009  0.00  0.00    -0.119 C 
ATOM     19  H1  <0> d           0.912   1.877   0.003  0.00  0.00     0.066 H 
ATOM     20  H2  <0> d          -0.959   1.851   0.017  0.00  0.00     0.066 H 
ATOM     21  H3  <0> d          -0.926  -0.557   0.008  0.00  0.00     0.085 H 
ENDBRANCH   1  17
TORSDOF 1
