REMARK  4 active torsions:
REMARK  status: ('A' for Active; 'I' for Inactive)
REMARK    1  A    between atoms: C3_3  and  C6_10 
REMARK    2  A    between atoms: C4_6  and  C5_8 
REMARK    3  A    between atoms: C5_8  and  O2_9 
REMARK    4  A    between atoms: C6_10  and  O3_11 
ROOT
ATOM      1  C1  <0> d          -0.496   2.160  -3.559  0.00  0.00    -0.036 C 
ATOM      2  C2  <0> d          -0.056   1.096  -2.524  0.00  0.00    -0.036 C 
ATOM      3  C3  <0> d          -0.753   1.593  -1.232  0.00  0.00     0.059 C 
ATOM      4  H1  <0> d          -1.806   1.294  -1.129  0.00  0.00     0.086 H 
ATOM      5  O1  <0> d          -0.657   3.030  -1.328  0.00  0.00    -0.376 OA
ATOM      6  C4  <0> d          -0.902   3.375  -2.702  0.00  0.00     0.059 C 
ATOM      7  H2  <0> d          -1.970   3.622  -2.794  0.00  0.00     0.086 H 
ATOM      8  H3  <0> d          -1.359   1.826  -4.153  0.00  0.00     0.036 H 
ATOM      9  H4  <0> d           0.325   2.445  -4.233  0.00  0.00     0.036 H 
ATOM     10  H5  <0> d          -0.405   0.104  -2.847  0.00  0.00     0.036 H 
ATOM     11  H6  <0> d           1.041   1.092  -2.447  0.00  0.00     0.036 H 
ENDROOT
BRANCH   3  12
ATOM     12  C6  <0> d          -0.013   1.086   0.008  0.00  0.00     0.041 C 
ATOM     13  H10 <0> d           0.002  -0.014   0.002  0.00  0.00     0.077 H 
ATOM     14  H11 <0> d           1.019   1.466   0.000  0.00  0.00     0.077 H 
BRANCH  12  15
ATOM     15  O3  <0> d          -0.682   1.547   1.184  0.00  0.00    -0.398 OA
ATOM     16  H12 <0> d          -0.293   1.281   2.178  0.00  0.00     0.209 HD
ENDBRANCH  12  15
ENDBRANCH   3  12
BRANCH   6  17
ATOM     17  C5  <0> d          -0.058   4.591  -3.091  0.00  0.00     0.041 C 
ATOM     18  H7  <0> d           0.998   4.396  -2.852  0.00  0.00     0.077 H 
ATOM     19  H8  <0> d          -0.161   4.779  -4.170  0.00  0.00     0.077 H 
BRANCH  17  20
ATOM     20  O2  <0> d          -0.508   5.736  -2.363  0.00  0.00    -0.398 OA
ATOM     21  H9  <0> d          -0.018   6.709  -2.511  0.00  0.00     0.209 HD
ENDBRANCH  17  20
ENDBRANCH   6  17
TORSDOF 4
