REMARK  6 active torsions:
REMARK  status: ('A' for Active; 'I' for Inactive)
REMARK    1  A    between atoms: C1_1  and  O1_2 
REMARK    2  A    between atoms: O1_2  and  C2_3 
REMARK    3  A    between atoms: C2_3  and  C3_4 
REMARK    4  A    between atoms: C4_5  and  C5_6 
REMARK    5  A    between atoms: C5_6  and  C6_8 
REMARK    6  A    between atoms: C5_6  and  O2_10 
ROOT
ATOM      1  C3  <0> d           0.634  -2.050   1.015  0.00  0.00    -0.077 C 
ATOM      2  C4  <0> d           0.603  -3.220   0.929  0.00  0.00    -0.069 C 
ENDROOT
BRANCH   2   3
ATOM      3  C5  <0> d           0.564  -4.688   0.821  0.00  0.00     0.110 C 
ATOM      4  H1  <0> d           1.076  -5.129   1.676  0.00  0.00     0.109 H 
BRANCH   3   5
ATOM      5  C6  <0> d           1.249  -5.116  -0.451  0.00  0.00    -0.074 C 
ATOM      6  C7  <0> d           2.295  -5.904  -0.399  0.00  0.00    -0.122 C 
ATOM      7  H8  <0> d           2.666  -6.245   0.556  0.00  0.00     0.066 H 
ATOM      8  H9  <0> d           2.786  -6.210  -1.310  0.00  0.00     0.066 H 
ATOM      9  H7  <0> d           0.879  -4.774  -1.406  0.00  0.00     0.081 H 
ENDBRANCH   3   5
BRANCH   3  10
ATOM     10  O2  <0> d          -0.796  -5.128   0.800  0.00  0.00    -0.380 OA
ATOM     11  H10 <0> d          -1.313  -4.774   0.064  0.00  0.00     0.211 HD
ENDBRANCH   3  10
ENDBRANCH   2   3
BRANCH   1  12
ATOM     12  C2  <0> d           0.673  -0.582   1.123  0.00  0.00     0.073 C 
ATOM     13  H5  <0> d           1.710  -0.247   1.139  0.00  0.00     0.093 H 
ATOM     14  H6  <0> d           0.177  -0.273   2.043  0.00  0.00     0.093 H 
BRANCH  12  15
ATOM     15  O1  <0> d           0.002  -0.004   0.002  0.00  0.00    -0.384 OA
BRANCH  15  16
ATOM     16  C1  <0> d          -0.017   1.425   0.010  0.00  0.00     0.005 C 
ATOM     17  H2  <0> d           1.005   1.802   0.002  0.00  0.00     0.066 H 
ATOM     18  H3  <0> d          -0.544   1.786  -0.873  0.00  0.00     0.066 H 
ATOM     19  H4  <0> d          -0.527   1.776   0.907  0.00  0.00     0.066 H 
ENDBRANCH  15  16
ENDBRANCH  12  15
ENDBRANCH   1  12
TORSDOF 6
