REMARK  1 active torsions:
REMARK  status: ('A' for Active; 'I' for Inactive)
REMARK    1  A    between atoms: N2_7  and  O1_10 
ROOT
ATOM      1  C1  <0> d           3.946   2.760   2.833  0.00  0.00    -0.064 A 
ATOM      2  C2  <0> d           4.196   2.889   1.493  0.00  0.00    -0.048 A 
ATOM      3  C3  <0> d           3.219   2.448   0.589  0.00  0.00     0.130 A 
ATOM      4  C4  <0> d           2.026   1.899   1.095  0.00  0.00     0.207 A 
ATOM      5  N1  <0> d           1.840   1.793   2.402  0.00  0.00    -0.238 NA
ATOM      6  C5  <0> d           2.749   2.204   3.261  0.00  0.00     0.005 A 
ATOM      7  N2  <0> d           1.275   1.556  -0.002  0.00  0.00    -0.100 N 
ATOM      8  N3  <0> d           2.023   1.913  -1.132  0.00  0.00    -0.037 NA
ATOM      9  N4  <0> d           3.143   2.427  -0.761  0.00  0.00    -0.126 NA
ATOM     10  H1  <0> d           4.678   3.091   3.555  0.00  0.00     0.085 H 
ATOM     11  H2  <0> d           5.121   3.320   1.141  0.00  0.00     0.087 H 
ATOM     12  H3  <0> d           2.560   2.105   4.319  0.00  0.00     0.114 H 
ENDROOT
BRANCH   7  13
ATOM     13  O1  <0> d          -0.011   0.963   0.007  0.00  0.00    -0.264 OA
ATOM     14  H4  <0> d           0.002  -0.004   0.002  0.00  0.00     0.247 HD
ENDBRANCH   7  13
TORSDOF 1
