REMARK  2 active torsions:
REMARK  status: ('A' for Active; 'I' for Inactive)
REMARK    1  A    between atoms: C1_1  and  C2_2 
REMARK    2  A    between atoms: C2_2  and  C10_12 
ROOT
ATOM      1  C2  <0> d           1.514   1.457  -0.005  0.00  0.00    -0.037 C 
ATOM      2  C3  <0> d          -0.019   1.537   0.011  0.00  0.00    -0.046 C 
ATOM      3  H1  <0> d          -0.458   1.983  -0.885  0.00  0.00     0.041 H 
ATOM      4  C4  <0> d          -0.610   2.081   1.313  0.00  0.00    -0.058 C 
ATOM      5  C5  <0> d          -0.306   1.141   2.485  0.00  0.00    -0.044 C 
ATOM      6  C6  <0> d           1.033   0.465   2.237  0.00  0.00    -0.084 C 
ATOM      7  C7  <0> d           1.865   0.173   3.210  0.00  0.00    -0.119 C 
ATOM      8  C8  <0> d           1.329   0.135   0.775  0.00  0.00    -0.026 C 
ATOM      9  H2  <0> d           2.075  -0.643   0.613  0.00  0.00     0.048 H 
ATOM     10  C9  <0> d           0.002  -0.004   0.002  0.00  0.00    -0.053 C 
ATOM     11  H6  <0> d          -0.235   3.079   1.523  0.00  0.00     0.034 H 
ATOM     12  H7  <0> d          -1.701   2.151   1.197  0.00  0.00     0.034 H 
ATOM     13  H8  <0> d          -1.091   0.386   2.569  0.00  0.00     0.039 H 
ATOM     14  H9  <0> d          -0.261   1.713   3.415  0.00  0.00     0.039 H 
ATOM     15  H10 <0> d           2.801  -0.319   2.991  0.00  0.00     0.067 H 
ATOM     16  H11 <0> d           1.613   0.425   4.230  0.00  0.00     0.067 H 
ATOM     17  H12 <0> d          -0.801  -0.454   0.590  0.00  0.00     0.034 H 
ATOM     18  H13 <0> d           0.095  -0.450  -0.984  0.00  0.00     0.034 H 
ENDROOT
BRANCH   1  19
ATOM     19  C1  <0> d           2.111   1.270  -1.405  0.00  0.00    -0.068 C 
ATOM     20  H3  <0> d           1.826   2.111  -2.037  0.00  0.00     0.028 H 
ATOM     21  H4  <0> d           3.198   1.223  -1.332  0.00  0.00     0.028 H 
ATOM     22  H5  <0> d           1.736   0.344  -1.840  0.00  0.00     0.028 H 
ENDBRANCH   1  19
BRANCH   1  23
ATOM     23  C10 <0> d           2.224   2.560   0.781  0.00  0.00    -0.068 C 
ATOM     24  H14 <0> d           1.919   2.517   1.826  0.00  0.00     0.028 H 
ATOM     25  H15 <0> d           3.303   2.419   0.711  0.00  0.00     0.028 H 
ATOM     26  H16 <0> d           1.958   3.532   0.365  0.00  0.00     0.028 H 
ENDBRANCH   1  23
TORSDOF 2
