REMARK  2 active torsions:
REMARK  status: ('A' for Active; 'I' for Inactive)
REMARK    1  A    between atoms: N2_4  and  C4_6 
REMARK    2  A    between atoms: N5_10  and  N6_11 
ROOT
ATOM      1  C4  <0> d           2.407   1.487  -0.013  0.00  0.00     0.763 A 
ATOM      2  N3  <0> d           2.845   0.252  -0.017  0.00  0.00     0.046 NA
ATOM      3  N4  <0> d           4.130   0.246  -0.034  0.00  0.00    -0.127 NA
ATOM      4  C5  <0> d           4.582   1.469  -0.033  0.00  0.00     0.120 A 
ATOM      5  N5  <0> d           3.502   2.301  -0.019  0.00  0.00    -0.098 N 
ATOM      6  H4  <0> d           5.620   1.768  -0.040  0.00  0.00     0.149 H 
ENDROOT
BRANCH   1   7
ATOM      7  N2  <0> d           1.073   1.893   0.002  0.00  0.00    -0.070 N 
ATOM      8  N1  <0> d           0.613   3.216   0.013  0.00  0.00    -0.166 NA
ATOM      9  C2  <0> d          -0.696   3.195   0.025  0.00  0.00     0.024 A 
ATOM     10  C1  <0> d          -1.115   1.860   0.017  0.00  0.00    -0.047 A 
ATOM     11  H2  <0> d          -1.342   4.060   0.035  0.00  0.00     0.117 H 
ATOM     12  C3  <0> d          -0.013   1.076   0.008  0.00  0.00     0.023 A 
ATOM     13  H1  <0> d          -2.139   1.516   0.020  0.00  0.00     0.087 H 
ATOM     14  H3  <0> d           0.002  -0.004   0.002  0.00  0.00     0.115 H 
ENDBRANCH   1   7
BRANCH   5  15
ATOM     15  N6  <0> d           3.513   3.667  -0.011  0.00  0.00    -0.227 NA
ATOM     16  H5  <0> d           3.525   4.024   0.932  0.00  0.00     0.144 HD
ATOM     17  H6  <0> d           4.292   4.025  -0.543  0.00  0.00     0.144 HD
ENDBRANCH   5  15
TORSDOF 2
