REMARK  0 active torsions:
REMARK  status: ('A' for Active; 'I' for Inactive)
ROOT
ATOM      1  C1  <0> d          -0.018   1.458   0.010  0.00  0.00    -0.047 A 
ATOM      2  C2  <0> d           1.266   1.849  -0.000  0.00  0.00     0.020 A 
ATOM      3  O1  <0> d           2.078   0.777  -0.014  0.00  0.00    -0.319 OA
ATOM      4  C3  <0> d           1.367  -0.362  -0.013  0.00  0.00     0.129 A 
ATOM      5  C4  <0> d           0.002  -0.004   0.002  0.00  0.00     0.022 A 
ATOM      6  C5  <0> d          -0.950  -1.022   0.005  0.00  0.00     0.036 A 
ATOM      7  N1  <0> d          -0.545  -2.277  -0.006  0.00  0.00    -0.160 NA
ATOM      8  N2  <0> d           0.695  -2.604  -0.020  0.00  0.00    -0.135 NA
ATOM      9  C6  <0> d           1.673  -1.718  -0.024  0.00  0.00     0.182 A 
ATOM     10 Cl1  <0> d           3.328  -2.242  -0.043  0.00  0.00    -0.058 Cl
ATOM     11  H1  <0> d          -0.890   2.095   0.026  0.00  0.00     0.087 H 
ATOM     12  H2  <0> d           1.599   2.877   0.002  0.00  0.00     0.123 H 
ATOM     13  H3  <0> d          -2.004  -0.786   0.017  0.00  0.00     0.118 H 
ENDROOT
TORSDOF 0
