REMARK  1 active torsions:
REMARK  status: ('A' for Active; 'I' for Inactive)
REMARK    1  A    between atoms: C1_1  and  C2_2 
ROOT
ATOM      1  C2  <0> d           1.298  -0.384  -0.012  0.00  0.00     0.051 A 
ATOM      2  C3  <0> d           0.002  -0.004   0.002  0.00  0.00    -0.051 A 
ATOM      3  C4  <0> d          -0.017   1.401   0.010  0.00  0.00    -0.037 A 
ATOM      4  C5  <0> d           1.285   1.811  -0.001  0.00  0.00     0.155 A 
ATOM      5  O1  <0> d           2.069   0.713  -0.014  0.00  0.00    -0.304 OA
ATOM      6  C6  <0> d           1.740   3.169   0.002  0.00  0.00     0.125 C 
ATOM      7  N1  <0> d           2.100   4.246   0.004  0.00  0.00    -0.189 NA
ATOM      8  H4  <0> d          -0.858  -0.657   0.007  0.00  0.00     0.087 H 
ATOM      9  H5  <0> d          -0.892   2.033   0.018  0.00  0.00     0.088 H 
ENDROOT
BRANCH   1  10
ATOM     10  C1  <0> d           1.796  -1.806  -0.024  0.00  0.00    -0.031 C 
ATOM     11  H1  <0> d           1.906  -2.144  -1.055  0.00  0.00     0.036 H 
ATOM     12  H2  <0> d           2.761  -1.858   0.480  0.00  0.00     0.036 H 
ATOM     13  H3  <0> d           1.081  -2.446   0.493  0.00  0.00     0.036 H 
ENDBRANCH   1  10
TORSDOF 1
