REMARK  2 active torsions:
REMARK  status: ('A' for Active; 'I' for Inactive)
REMARK    1  A    between atoms: C7_9  and  C8_11 
REMARK    2  A    between atoms: C8_11  and  C9_12 
ROOT
ATOM      1  C1  <0> d          -0.930   3.166   0.802  0.00  0.00    -0.061 C 
ATOM      2  C2  <0> d          -0.945   3.175  -0.746  0.00  0.00    -0.061 C 
ATOM      3  C3  <0> d          -0.900   1.669  -1.148  0.00  0.00    -0.050 C 
ATOM      4  H1  <0> d          -0.567   1.457  -2.164  0.00  0.00     0.040 H 
ATOM      5  C4  <0> d          -0.013   1.086   0.008  0.00  0.00    -0.058 C 
ATOM      6  C5  <0> d          -0.877   1.656   1.187  0.00  0.00    -0.053 C 
ATOM      7  H2  <0> d          -0.532   1.423   2.194  0.00  0.00     0.040 H 
ATOM      8  C6  <0> d          -2.291   1.078   0.790  0.00  0.00    -0.058 C 
ATOM      9  C7  <0> d          -2.296   1.098  -0.756  0.00  0.00    -0.041 C 
ATOM     10  H3  <0> d          -3.090   1.748  -1.125  0.00  0.00     0.041 H 
ATOM     11  H4  <0> d          -1.837   3.627   1.193  0.00  0.00     0.033 H 
ATOM     12  H5  <0> d          -0.048   3.685   1.177  0.00  0.00     0.033 H 
ATOM     13  H6  <0> d          -0.069   3.697  -1.130  0.00  0.00     0.033 H 
ATOM     14  H7  <0> d          -1.859   3.639  -1.115  0.00  0.00     0.033 H 
ATOM     15  H8  <0> d           0.002  -0.004   0.002  0.00  0.00     0.034 H 
ATOM     16  H9  <0> d           0.994   1.503   0.001  0.00  0.00     0.034 H 
ATOM     17  H10 <0> d          -3.081   1.718   1.181  0.00  0.00     0.034 H 
ATOM     18  H11 <0> d          -2.411   0.059   1.157  0.00  0.00     0.034 H 
ENDROOT
BRANCH   9  19
ATOM     19  C8  <0> d          -2.468  -0.318  -1.309  0.00  0.00     0.019 C 
ATOM     20  H12 <0> d          -2.299  -0.311  -2.386  0.00  0.00     0.049 H 
ATOM     21  H13 <0> d          -1.749  -0.984  -0.833  0.00  0.00     0.049 H 
BRANCH  19  22
ATOM     22  C9  <0> d          -3.867  -0.802  -1.025  0.00  0.00     0.172 C 
ATOM     23  O1  <0> d          -4.646  -0.088  -0.440  0.00  0.00    -0.648 OA
ATOM     24  O2  <0> d          -4.247  -2.027  -1.422  0.00  0.00    -0.648 OA
ENDBRANCH  19  22
ENDBRANCH   9  19
TORSDOF 2
