REMARK  3 active torsions:
REMARK  status: ('A' for Active; 'I' for Inactive)
REMARK    1  A    between atoms: C1_1  and  C2_2 
REMARK    2  A    between atoms: C2_2  and  S1_3 
REMARK    3  A    between atoms: S1_3  and  C3_4 
ROOT
ATOM      1  C3  <0> d          -0.050   3.843   0.023  0.00  0.00     0.000 A 
ATOM      2  C4  <0> d           1.162   3.163   0.008  0.00  0.00    -0.067 A 
ATOM      3  C5  <0> d           1.177   1.782   0.000  0.00  0.00    -0.082 A 
ATOM      4  C6  <0> d          -0.013   1.076   0.008  0.00  0.00    -0.083 A 
ATOM      5  C7  <0> d          -1.220   1.749   0.017  0.00  0.00    -0.082 A 
ATOM      6  C8  <0> d          -1.243   3.130   0.031  0.00  0.00    -0.067 A 
ATOM      7  H6  <0> d           2.091   3.713   0.002  0.00  0.00     0.085 H 
ATOM      8  H7  <0> d           2.118   1.253  -0.012  0.00  0.00     0.083 H 
ATOM      9  H8  <0> d           0.002  -0.004   0.002  0.00  0.00     0.083 H 
ATOM     10  H9  <0> d          -2.147   1.195   0.019  0.00  0.00     0.083 H 
ATOM     11  H10 <0> d          -2.187   3.655   0.043  0.00  0.00     0.085 H 
ENDROOT
BRANCH   1  12
ATOM     12  S1  <0> d          -0.074   5.604   0.032  0.00  0.00    -0.130 SA
BRANCH  12  13
ATOM     13  C2  <0> d          -1.840   6.019   0.052  0.00  0.00    -0.022 C 
ATOM     14  H4  <0> d          -2.320   5.607  -0.836  0.00  0.00     0.048 H 
ATOM     15  H5  <0> d          -2.302   5.598   0.944  0.00  0.00     0.048 H 
BRANCH  13  16
ATOM     16  C1  <0> d          -2.006   7.540   0.061  0.00  0.00    -0.068 C 
ATOM     17  H1  <0> d          -3.067   7.790   0.072  0.00  0.00     0.028 H 
ATOM     18  H2  <0> d          -1.526   7.953   0.948  0.00  0.00     0.028 H 
ATOM     19  H3  <0> d          -1.544   7.962  -0.832  0.00  0.00     0.028 H 
ENDBRANCH  13  16
ENDBRANCH  12  13
ENDBRANCH   1  12
TORSDOF 3
