REMARK  3 active torsions:
REMARK  status: ('A' for Active; 'I' for Inactive)
REMARK    1  A    between atoms: C1_1  and  C2_2 
REMARK    2  A    between atoms: C4_5  and  C5_7 
REMARK    3  A    between atoms: C5_7  and  O1_8 
ROOT
ATOM      1  C2  <0> d          -0.718   1.572   1.248  0.00  0.00     0.038 A 
ATOM      2  C3  <0> d          -0.028   1.807   2.393  0.00  0.00    -0.020 A 
ATOM      3  S1  <0> d          -1.351   2.342   3.469  0.00  0.00    -0.082 SA
ATOM      4  C4  <0> d          -2.646   2.202   2.320  0.00  0.00     0.098 A 
ATOM      5  N1  <0> d          -2.017   1.784   1.245  0.00  0.00    -0.248 NA
ATOM      6  H4  <0> d           1.027   1.700   2.598  0.00  0.00     0.098 H 
ENDROOT
BRANCH   4   7
ATOM      7  C5  <0> d          -4.112   2.493   2.506  0.00  0.00     0.063 C 
ATOM      8  H5  <0> d          -4.236   3.279   3.251  0.00  0.00     0.084 H 
ATOM      9  H6  <0> d          -4.542   2.819   1.559  0.00  0.00     0.084 H 
BRANCH   7  10
ATOM     10  O1  <0> d          -4.780   1.309   2.948  0.00  0.00    -0.394 OA
ATOM     11  H7  <0> d          -5.730   1.422   3.089  0.00  0.00     0.209 HD
ENDBRANCH   7  10
ENDBRANCH   4   7
BRANCH   1  12
ATOM     12  C1  <0> d          -0.013   1.086   0.008  0.00  0.00    -0.035 C 
ATOM     13  H1  <0> d           0.002  -0.004   0.002  0.00  0.00     0.035 H 
ATOM     14  H2  <0> d           1.010   1.463   0.000  0.00  0.00     0.035 H 
ATOM     15  H3  <0> d          -0.540   1.447  -0.875  0.00  0.00     0.035 H 
ENDBRANCH   1  12
TORSDOF 3
