REMARK  3 active torsions:
REMARK  status: ('A' for Active; 'I' for Inactive)
REMARK    1  A    between atoms: C1_1  and  O1_2 
REMARK    2  A    between atoms: O1_2  and  C2_3 
REMARK    3  A    between atoms: C6_7  and  C8_9 
ROOT
ATOM      1  C2  <0> d          -1.226   1.751   0.017  0.00  0.00     0.069 A 
ATOM      2  C3  <0> d          -0.013   1.076   0.008  0.00  0.00    -0.051 A 
ATOM      3  C4  <0> d           1.176   1.781   0.000  0.00  0.00    -0.080 A 
ATOM      4  C5  <0> d           1.165   3.161   0.007  0.00  0.00    -0.073 A 
ATOM      5  C6  <0> d          -0.049   3.848   0.023  0.00  0.00    -0.034 A 
ATOM      6  C7  <0> d          -1.248   3.136   0.031  0.00  0.00    -0.041 A 
ATOM      7  H4  <0> d           0.002  -0.004   0.002  0.00  0.00     0.087 H 
ATOM      8  H5  <0> d           2.117   1.250  -0.011  0.00  0.00     0.083 H 
ATOM      9  H6  <0> d           2.096   3.709   0.001  0.00  0.00     0.084 H 
ATOM     10  H7  <0> d          -2.191   3.662   0.043  0.00  0.00     0.089 H 
ENDROOT
BRANCH   1  11
ATOM     11  O1  <0> d          -2.392   1.053   0.019  0.00  0.00    -0.356 OA
BRANCH  11  12
ATOM     12  C1  <0> d          -2.294  -0.372   0.011  0.00  0.00     0.010 C 
ATOM     13  H1  <0> d          -3.304  -0.809   0.013  0.00  0.00     0.066 H 
ATOM     14  H2  <0> d          -1.748  -0.708   0.905  0.00  0.00     0.066 H 
ATOM     15  H3  <0> d          -1.756  -0.698  -0.892  0.00  0.00     0.066 H 
ENDBRANCH  11  12
ENDBRANCH   1  11
BRANCH   5  16
ATOM     16  C8  <0> d          -0.065   5.326   0.031  0.00  0.00    -0.082 C 
ATOM     17  C9  <0> d           1.076   6.001   0.024  0.00  0.00    -0.120 C 
ATOM     18  H9  <0> d           1.065   7.101   0.030  0.00  0.00     0.066 H 
ATOM     19  H10 <0> d           2.035   5.461   0.012  0.00  0.00     0.066 H 
ATOM     20  H8  <0> d          -1.023   5.866   0.043  0.00  0.00     0.083 H 
ENDBRANCH   5  16
TORSDOF 3
