REMARK  3 active torsions:
REMARK  status: ('A' for Active; 'I' for Inactive)
REMARK    1  A    between atoms: C5_6  and  O4_13 
REMARK    2  A    between atoms: C6_8  and  C7_11 
REMARK    3  A    between atoms: C7_11  and  O3_12 
ROOT
ATOM      1  C1  <0> d          -0.426   4.633  -0.690  0.00  0.00     0.050 C 
ATOM      2  C2  <0> d          -0.019   4.848   0.792  0.00  0.00     0.079 C 
ATOM      3  H1  <0> d          -0.826   5.236   1.413  0.00  0.00     0.093 H 
ATOM      4  C3  <0> d           1.212   5.733   0.786  0.00  0.00    -0.075 C 
ATOM      5  C4  <0> d           2.368   5.233   0.441  0.00  0.00    -0.072 C 
ATOM      6  C5  <0> d           2.523   3.752   0.041  0.00  0.00     0.108 C 
ATOM      7  H2  <0> d           3.154   3.241   0.767  0.00  0.00     0.098 H 
ATOM      8  C6  <0> d           1.145   3.085   0.008  0.00  0.00     0.216 C 
ATOM      9  O1  <0> d           0.386   3.527  -1.126  0.00  0.00    -0.348 OA
ATOM     10  O2  <0> d           0.421   3.521   1.181  0.00  0.00    -0.339 OA
ATOM     11  H3  <0> d          -1.484   4.380  -0.761  0.00  0.00     0.079 H 
ATOM     12  H4  <0> d          -0.208   5.524  -1.278  0.00  0.00     0.079 H 
ATOM     13  H5  <0> d           1.133   6.773   1.066  0.00  0.00     0.080 H 
ATOM     14  H6  <0> d           3.234   5.878   0.429  0.00  0.00     0.080 H 
ENDROOT
BRANCH   8  15
ATOM     15  C7  <0> d           1.286   1.562  -0.002  0.00  0.00     0.071 C 
ATOM     16  H7  <0> d           1.840   1.243   0.881  0.00  0.00     0.082 H 
ATOM     17  H8  <0> d           1.823   1.252  -0.899  0.00  0.00     0.082 H 
BRANCH  15  18
ATOM     18  O3  <0> d          -0.011   0.963   0.007  0.00  0.00    -0.395 OA
ATOM     19  H9  <0> d           0.002  -0.004   0.002  0.00  0.00     0.209 HD
ENDBRANCH  15  18
ENDBRANCH   8  15
BRANCH   6  20
ATOM     20  O4  <0> d           3.124   3.660  -1.252  0.00  0.00    -0.386 OA
ATOM     21  H10 <0> d           4.002   4.063  -1.307  0.00  0.00     0.210 HD
ENDBRANCH   6  20
TORSDOF 3
