REMARK  1 active torsions:
REMARK  status: ('A' for Active; 'I' for Inactive)
REMARK    1  A    between atoms: C4_4  and  N2_9 
ROOT
ATOM      1  C1  <0> d          -3.652   3.003   0.036  0.00  0.00    -0.080 A 
ATOM      2  C2  <0> d          -3.640   1.622   0.029  0.00  0.00    -0.061 A 
ATOM      3  C3  <0> d          -2.428   0.929   0.019  0.00  0.00     0.072 A 
ATOM      4  C4  <0> d          -1.219   1.641   0.017  0.00  0.00     0.067 A 
ATOM      5  C5  <0> d          -1.244   3.045   0.030  0.00  0.00     0.072 A 
ATOM      6  C6  <0> d          -2.470   3.715   0.035  0.00  0.00    -0.061 A 
ATOM      7  C7  <0> d          -0.019   3.786   0.034  0.00  0.00     0.102 C 
ATOM      8  N1  <0> d           0.953   4.374   0.037  0.00  0.00    -0.191 NA
ATOM      9  C8  <0> d          -2.419  -0.503   0.010  0.00  0.00     0.102 C 
ATOM     10  N3  <0> d          -2.411  -1.639   0.003  0.00  0.00    -0.191 NA
ATOM     11  H1  <0> d          -4.595   3.530   0.044  0.00  0.00     0.083 H 
ATOM     12  H2  <0> d          -4.572   1.076   0.030  0.00  0.00     0.086 H 
ATOM     13  H3  <0> d          -2.492   4.795   0.041  0.00  0.00     0.086 H 
ENDROOT
BRANCH   4  14
ATOM     14  N2  <0> d          -0.011   0.966   0.007  0.00  0.00    -0.397 N 
ATOM     15  H4  <0> d           0.934   1.529   0.006  0.00  0.00     0.156 HD
ATOM     16  H5  <0> d           0.004  -0.134   0.001  0.00  0.00     0.156 HD
ENDBRANCH   4  14
TORSDOF 1
