REMARK  5 active torsions:
REMARK  status: ('A' for Active; 'I' for Inactive)
REMARK    1  A    between atoms: C1_1  and  C2_2 
REMARK    2  A    between atoms: C2_2  and  C3_3 
REMARK    3  A    between atoms: C3_3  and  O1_4 
REMARK    4  A    between atoms: O1_4  and  C4_5 
REMARK    5  A    between atoms: C8_9  and  N2_11 
ROOT
ATOM      1  C4  <0> d          -1.198  -0.636   0.010  0.00  0.00     0.166 A 
ATOM      2  C5  <0> d          -1.243  -2.023  -0.003  0.00  0.00    -0.032 A 
ATOM      3  C6  <0> d          -2.474  -2.662   0.011  0.00  0.00    -0.075 A 
ATOM      4  C7  <0> d          -3.622  -1.887   0.026  0.00  0.00    -0.039 A 
ATOM      5  C8  <0> d          -3.505  -0.502   0.033  0.00  0.00     0.123 A 
ATOM      6  N1  <0> d          -2.313   0.076   0.025  0.00  0.00    -0.208 NA
ATOM      7  H8  <0> d          -0.330  -2.599  -0.019  0.00  0.00     0.090 H 
ATOM      8  H9  <0> d          -2.536  -3.740   0.006  0.00  0.00     0.083 H 
ATOM      9  H10 <0> d          -4.595  -2.353   0.033  0.00  0.00     0.089 H 
ENDROOT
BRANCH   1  10
ATOM     10  O1  <0> d           0.002  -0.004   0.002  0.00  0.00    -0.334 OA
BRANCH  10  11
ATOM     11  C3  <0> d          -0.017   1.425   0.010  0.00  0.00     0.027 C 
ATOM     12  H6  <0> d          -0.532   1.780   0.915  0.00  0.00     0.075 H 
ATOM     13  H7  <0> d          -0.549   1.789  -0.881  0.00  0.00     0.075 H 
BRANCH  11  14
ATOM     14  C2  <0> d           1.418   1.954  -0.001  0.00  0.00    -0.048 C 
ATOM     15  H4  <0> d           1.933   1.600  -0.906  0.00  0.00     0.035 H 
ATOM     16  H5  <0> d           1.950   1.590   0.890  0.00  0.00     0.035 H 
BRANCH  14  17
ATOM     17  C1  <0> d           1.397   3.484   0.007  0.00  0.00    -0.075 C 
ATOM     18  H1  <0> d           2.429   3.865  -0.000  0.00  0.00     0.027 H 
ATOM     19  H2  <0> d           0.882   3.839   0.912  0.00  0.00     0.027 H 
ATOM     20  H3  <0> d           0.865   3.849  -0.884  0.00  0.00     0.027 H 
ENDBRANCH  14  17
ENDBRANCH  11  14
ENDBRANCH  10  11
ENDBRANCH   1  10
BRANCH   5  21
ATOM     21  N2  <0> d          -4.651   0.285   0.048  0.00  0.00    -0.384 N 
ATOM     22  H11 <0> d          -4.566   1.381   0.052  0.00  0.00     0.157 HD
ATOM     23  H12 <0> d          -5.644  -0.190   0.054  0.00  0.00     0.157 HD
ENDBRANCH   5  21
TORSDOF 5
