REMARK  0 active torsions:
REMARK  status: ('A' for Active; 'I' for Inactive)
ROOT
ATOM      1  C1  <0> d           3.370   2.558  -0.017  0.00  0.00    -0.060 A 
ATOM      2  C2  <0> d           2.472   1.514  -0.013  0.00  0.00    -0.055 A 
ATOM      3  C3  <0> d           1.106   1.772   0.001  0.00  0.00     0.042 A 
ATOM      4  C4  <0> d           0.654   3.105   0.013  0.00  0.00    -0.007 A 
ATOM      5  C5  <0> d          -0.809   3.037   0.026  0.00  0.00    -0.056 A 
ATOM      6  C6  <0> d          -1.141   1.736   0.016  0.00  0.00    -0.022 A 
ATOM      7  N1  <0> d          -0.011   0.966   0.007  0.00  0.00    -0.365 N 
ATOM      8  H1  <0> d           0.002  -0.004   0.002  0.00  0.00     0.165 HD
ATOM      9  C7  <0> d           1.577   4.153   0.009  0.00  0.00    -0.050 A 
ATOM     10  C8  <0> d           2.925   3.874  -0.006  0.00  0.00     0.035 A 
ATOM     11 Cl1  <0> d           4.076   5.174  -0.010  0.00  0.00    -0.084 Cl
ATOM     12  H2  <0> d           4.430   2.352  -0.028  0.00  0.00     0.086 H 
ATOM     13  H3  <0> d           2.829   0.494  -0.022  0.00  0.00     0.087 H 
ATOM     14  H4  <0> d          -1.491   3.874   0.037  0.00  0.00     0.086 H 
ATOM     15  H5  <0> d          -2.152   1.355   0.018  0.00  0.00     0.111 H 
ATOM     16  H6  <0> d           1.234   5.178   0.017  0.00  0.00     0.087 H 
ENDROOT
TORSDOF 0
