REMARK  2 active torsions:
REMARK  status: ('A' for Active; 'I' for Inactive)
REMARK    1  A    between atoms: C1_1  and  C2_2 
REMARK    2  A    between atoms: C6_6  and  N1_9 
ROOT
ATOM      1  C2  <0> d          -3.633   1.618   0.028  0.00  0.00    -0.021 A 
ATOM      2  C3  <0> d          -3.649   3.001   0.035  0.00  0.00    -0.072 A 
ATOM      3  C4  <0> d          -2.462   3.709   0.034  0.00  0.00    -0.059 A 
ATOM      4  C5  <0> d          -1.253   3.038   0.030  0.00  0.00     0.063 A 
ATOM      5  C6  <0> d          -1.232   1.649   0.017  0.00  0.00     0.087 A 
ATOM      6  C7  <0> d          -2.428   0.939   0.019  0.00  0.00     0.150 A 
ATOM      7  F1  <0> d          -2.413  -0.412   0.012  0.00  0.00    -0.203 F 
ATOM      8 Cl1  <0> d           0.237   3.929   0.036  0.00  0.00    -0.082 Cl
ATOM      9  H4  <0> d          -4.591   3.529   0.042  0.00  0.00     0.084 H 
ATOM     10  H5  <0> d          -2.478   4.789   0.040  0.00  0.00     0.086 H 
ENDROOT
BRANCH   1  11
ATOM     11  C1  <0> d          -4.929   0.850   0.030  0.00  0.00    -0.048 C 
ATOM     12  H1  <0> d          -5.237   0.659   1.058  0.00  0.00     0.033 H 
ATOM     13  H2  <0> d          -5.698   1.433  -0.477  0.00  0.00     0.033 H 
ATOM     14  H3  <0> d          -4.791  -0.098  -0.490  0.00  0.00     0.033 H 
ENDBRANCH   1  11
BRANCH   5  15
ATOM     15  N1  <0> d          -0.011   0.966   0.007  0.00  0.00    -0.395 N 
ATOM     16  H6  <0> d           0.002  -0.004   0.002  0.00  0.00     0.156 HD
ATOM     17  H7  <0> d           0.822   1.462   0.002  0.00  0.00     0.156 HD
ENDBRANCH   5  15
TORSDOF 2
