REMARK  2 active torsions:
REMARK  status: ('A' for Active; 'I' for Inactive)
REMARK    1  A    between atoms: C1_1  and  C2_2 
REMARK    2  A    between atoms: C2_2  and  C3_4 
ROOT
ATOM      1  C3  <0> d           2.302   0.048  -0.020  0.00  0.00     0.195 A 
ATOM      2  N1  <0> d           1.164  -0.632  -0.012  0.00  0.00    -0.238 NA
ATOM      3  C4  <0> d           0.002  -0.004   0.002  0.00  0.00     0.006 A 
ATOM      4  C5  <0> d          -0.017   1.384   0.010  0.00  0.00    -0.049 A 
ATOM      5  C6  <0> d           1.194   2.064   0.002  0.00  0.00     0.006 A 
ATOM      6  N2  <0> d           2.320   1.374  -0.013  0.00  0.00    -0.238 NA
ATOM      7  H4  <0> d          -0.922  -0.563   0.007  0.00  0.00     0.114 H 
ATOM      8  H5  <0> d          -0.952   1.924   0.017  0.00  0.00     0.087 H 
ATOM      9  H6  <0> d           1.215   3.144   0.007  0.00  0.00     0.114 H 
ENDROOT
BRANCH   1  10
ATOM     10  C2  <0> d           3.584  -0.691  -0.035  0.00  0.00     0.193 C 
ATOM     11  O1  <0> d           3.585  -1.899  -0.042  0.00  0.00    -0.289 OA
BRANCH  10  12
ATOM     12  C1  <0> d           4.889   0.063  -0.044  0.00  0.00    -0.013 C 
ATOM     13  H1  <0> d           4.705   1.046  -0.037  0.00  0.00     0.038 H 
ATOM     14  H2  <0> d           5.469  -0.204   0.840  0.00  0.00     0.038 H 
ATOM     15  H3  <0> d           5.452  -0.195  -0.940  0.00  0.00     0.038 H 
ENDBRANCH  10  12
ENDBRANCH   1  10
TORSDOF 2
