REMARK  2 active torsions:
REMARK  status: ('A' for Active; 'I' for Inactive)
REMARK    1  A    between atoms: C2_2  and  C3_3 
REMARK    2  A    between atoms: C3_3  and  C4_4 
ROOT
ATOM      1  C1  <0> d           0.018  -1.178  -0.004  0.00  0.00    -0.154 C 
ATOM      2  C2  <0> d           0.002  -0.004   0.002  0.00  0.00    -0.107 C 
ATOM      3  H1  <0> d           0.032  -2.228  -0.010  0.00  0.00     0.166 H 
ENDROOT
BRANCH   2   4
ATOM      4  C3  <0> d          -0.018   1.468   0.010  0.00  0.00     0.070 C 
ATOM      5  H2  <0> d          -0.545   1.829  -0.873  0.00  0.00     0.068 H 
ATOM      6  H3  <0> d          -0.528   1.819   0.907  0.00  0.00     0.068 H 
BRANCH   4   7
ATOM      7  C4  <0> d           1.396   1.989  -0.001  0.00  0.00     0.184 C 
ATOM      8  O1  <0> d           2.325   1.217  -0.014  0.00  0.00    -0.647 OA
ATOM      9  O2  <0> d           1.623   3.312   0.004  0.00  0.00    -0.647 OA
ENDBRANCH   4   7
ENDBRANCH   2   4
TORSDOF 2
