REMARK  5 active torsions:
REMARK  status: ('A' for Active; 'I' for Inactive)
REMARK    1  A    between atoms: C1_1  and  C2_2 
REMARK    2  A    between atoms: C2_2  and  C7_10 
REMARK    3  A    between atoms: C4_5  and  N2_7 
REMARK    4  A    between atoms: N2_7  and  C5_8 
REMARK    5  A    between atoms: N2_7  and  C6_9 
ROOT
ATOM      1  C2  <0> d           1.378   1.778  -0.002  0.00  0.00     0.072 C 
ATOM      2  C3  <0> d           2.166   0.501   0.378  0.00  0.00     0.053 C 
ATOM      3  O1  <0> d           1.242  -0.532  -0.021  0.00  0.00    -0.318 OA
ATOM      4  C4  <0> d           0.002  -0.004   0.002  0.00  0.00     0.239 C 
ATOM      5  N1  <0> d          -0.015   1.293   0.009  0.00  0.00    -0.239 NA
ATOM      6  H4  <0> d           2.357   0.463   1.450  0.00  0.00     0.079 H 
ATOM      7  H5  <0> d           3.097   0.432  -0.186  0.00  0.00     0.079 H 
ENDROOT
BRANCH   4   8
ATOM      8  N2  <0> d          -1.138  -0.769   0.017  0.00  0.00    -0.355 N 
BRANCH   8   9
ATOM      9  C5  <0> d          -2.453  -0.124   0.042  0.00  0.00    -0.016 C 
ATOM     10  H6  <0> d          -2.796   0.042  -0.979  0.00  0.00     0.056 H 
ATOM     11  H7  <0> d          -3.163  -0.766   0.564  0.00  0.00     0.056 H 
ATOM     12  H8  <0> d          -2.379   0.832   0.560  0.00  0.00     0.056 H 
ENDBRANCH   8   9
BRANCH   8  13
ATOM     13  C6  <0> d          -1.040  -2.231   0.007  0.00  0.00    -0.016 C 
ATOM     14  H9  <0> d          -0.488  -2.564   0.887  0.00  0.00     0.056 H 
ATOM     15  H10 <0> d          -2.041  -2.663   0.022  0.00  0.00     0.056 H 
ATOM     16  H11 <0> d          -0.517  -2.554  -0.893  0.00  0.00     0.056 H 
ENDBRANCH   8  13
ENDBRANCH   4   8
BRANCH   1  17
ATOM     17  C1  <0> d           1.775   2.272  -1.395  0.00  0.00    -0.049 C 
ATOM     18  H1  <0> d           1.134   3.106  -1.681  0.00  0.00     0.031 H 
ATOM     19  H2  <0> d           2.814   2.600  -1.382  0.00  0.00     0.031 H 
ATOM     20  H3  <0> d           1.658   1.461  -2.114  0.00  0.00     0.031 H 
ENDBRANCH   1  17
BRANCH   1  21
ATOM     21  C7  <0> d           1.583   2.877   1.044  0.00  0.00    -0.049 C 
ATOM     22  H12 <0> d           1.332   2.490   2.031  0.00  0.00     0.031 H 
ATOM     23  H13 <0> d           2.624   3.199   1.033  0.00  0.00     0.031 H 
ATOM     24  H14 <0> d           0.938   3.724   0.811  0.00  0.00     0.031 H 
ENDBRANCH   1  21
TORSDOF 5
