REMARK  5 active torsions:
REMARK  status: ('A' for Active; 'I' for Inactive)
REMARK    1  A    between atoms: C1_1  and  C2_2 
REMARK    2  A    between atoms: C2_2  and  O1_3 
REMARK    3  A    between atoms: O1_3  and  C3_4 
REMARK    4  A    between atoms: C3_4  and  C4_6 
REMARK    5  A    between atoms: C3_4  and  C5_7 
ROOT
ATOM      1  C3  <0> d          -0.068   1.127   2.404  0.00  0.00     0.060 C 
ATOM      2  H1  <0> d           0.423   0.166   2.252  0.00  0.00     0.090 H 
ENDROOT
BRANCH   1   3
ATOM      3  O1  <0> d          -0.682   1.547   1.184  0.00  0.00    -0.382 OA
BRANCH   3   4
ATOM      4  C2  <0> d          -0.013   1.086   0.008  0.00  0.00     0.017 C 
ATOM      5  H5  <0> d           0.002  -0.004   0.002  0.00  0.00     0.073 H 
ATOM      6  H6  <0> d           1.010   1.463   0.000  0.00  0.00     0.073 H 
BRANCH   4   7
ATOM      7  C1  <0> d          -0.753   1.593  -1.232  0.00  0.00    -0.056 C 
ATOM      8  H2  <0> d          -1.775   1.215  -1.224  0.00  0.00     0.030 H 
ATOM      9  H3  <0> d          -0.767   2.683  -1.226  0.00  0.00     0.030 H 
ATOM     10  H4  <0> d          -0.242   1.241  -2.128  0.00  0.00     0.030 H 
ENDBRANCH   4   7
ENDBRANCH   3   4
ENDBRANCH   1   3
BRANCH   1  11
ATOM     11  C4  <0> d           0.968   2.166   2.838  0.00  0.00    -0.048 C 
ATOM     12  H7  <0> d           1.436   1.845   3.769  0.00  0.00     0.031 H 
ATOM     13  H8  <0> d           1.729   2.265   2.064  0.00  0.00     0.031 H 
ATOM     14  H9  <0> d           0.477   3.127   2.990  0.00  0.00     0.031 H 
ENDBRANCH   1  11
BRANCH   1  15
ATOM     15  C5  <0> d          -1.120   0.989   3.474  0.00  0.00    -0.030 A 
ATOM     16  C10 <0> d          -1.009  -0.005   4.429  0.00  0.00    -0.074 A 
ATOM     17  C9  <0> d          -1.974  -0.131   5.410  0.00  0.00    -0.082 A 
ATOM     18  H14 <0> d          -0.168  -0.682   4.407  0.00  0.00     0.084 H 
ATOM     19  C8  <0> d          -3.050   0.736   5.437  0.00  0.00    -0.083 A 
ATOM     20  H13 <0> d          -1.888  -0.908   6.156  0.00  0.00     0.083 H 
ATOM     21  C7  <0> d          -3.161   1.730   4.483  0.00  0.00    -0.082 A 
ATOM     22  H12 <0> d          -3.804   0.638   6.204  0.00  0.00     0.083 H 
ATOM     23  C6  <0> d          -2.193   1.859   3.504  0.00  0.00    -0.074 A 
ATOM     24  H11 <0> d          -4.002   2.408   4.504  0.00  0.00     0.083 H 
ATOM     25  H10 <0> d          -2.278   2.639   2.761  0.00  0.00     0.084 H 
ENDBRANCH   1  15
TORSDOF 5
