REMARK  2 active torsions:
REMARK  status: ('A' for Active; 'I' for Inactive)
REMARK    1  A    between atoms: C1_1  and  C2_2 
REMARK    2  A    between atoms: C4_5  and  C5_7 
ROOT
ATOM      1  C2  <0> d          -0.718   1.572   1.248  0.00  0.00    -0.002 A 
ATOM      2  C3  <0> d          -0.215   1.861   2.475  0.00  0.00     0.015 A 
ATOM      3  N1  <0> d          -1.044   2.275   3.410  0.00  0.00    -0.258 NA
ATOM      4  C4  <0> d          -2.329   2.409   3.175  0.00  0.00     0.071 A 
ATOM      5  S1  <0> d          -2.448   1.935   1.509  0.00  0.00    -0.079 SA
ATOM      6  H4  <0> d           0.840   1.754   2.679  0.00  0.00     0.116 H 
ENDROOT
BRANCH   1   7
ATOM      7  C1  <0> d          -0.013   1.086   0.008  0.00  0.00    -0.044 C 
ATOM      8  H1  <0> d           0.002  -0.004   0.002  0.00  0.00     0.034 H 
ATOM      9  H2  <0> d           1.010   1.463   0.000  0.00  0.00     0.034 H 
ATOM     10  H3  <0> d          -0.540   1.447  -0.875  0.00  0.00     0.034 H 
ENDBRANCH   1   7
BRANCH   4  11
ATOM     11  C5  <0> d          -3.420   2.865   4.110  0.00  0.00    -0.029 C 
ATOM     12  H5  <0> d          -3.528   3.947   4.043  0.00  0.00     0.036 H 
ATOM     13  H6  <0> d          -4.359   2.388   3.832  0.00  0.00     0.036 H 
ATOM     14  H7  <0> d          -3.161   2.588   5.132  0.00  0.00     0.036 H 
ENDBRANCH   4  11
TORSDOF 2
