REMARK  0 active torsions:
REMARK  status: ('A' for Active; 'I' for Inactive)
ROOT
ATOM      1  C1  <0> d           1.252  -0.665  -0.013  0.00  0.00    -0.017 A 
ATOM      2  C2  <0> d           2.387   0.068  -0.020  0.00  0.00    -0.019 A 
ATOM      3  N1  <0> d           2.337   1.423  -0.013  0.00  0.00    -0.372 N 
ATOM      4  H1  <0> d           3.269   2.007  -0.018  0.00  0.00     0.164 HD
ATOM      5  C3  <0> d           1.154   2.088   0.002  0.00  0.00     0.018 A 
ATOM      6  C4  <0> d          -0.017   1.412   0.010  0.00  0.00     0.181 A 
ATOM      7  C5  <0> d           0.002  -0.004   0.002  0.00  0.00     0.212 A 
ATOM      8  O1  <0> d          -1.041  -0.642   0.008  0.00  0.00    -0.285 OA
ATOM      9  F1  <0> d          -1.192   2.080   0.019  0.00  0.00    -0.200 F 
ATOM     10  H2  <0> d           1.299  -1.744  -0.020  0.00  0.00     0.091 H 
ATOM     11  H3  <0> d           3.345  -0.431  -0.032  0.00  0.00     0.111 H 
ATOM     12  H4  <0> d           1.148   3.168   0.008  0.00  0.00     0.116 H 
ENDROOT
TORSDOF 0
