REMARK  0 active torsions:
REMARK  status: ('A' for Active; 'I' for Inactive)
ROOT
ATOM      1  C1  <0> d          -0.779   1.607  -1.222  0.00  0.00    -0.037 C 
ATOM      2  C2  <0> d          -1.948   2.439  -0.646  0.00  0.00    -0.022 C 
ATOM      3  C3  <0> d          -1.449   2.800   0.776  0.00  0.00     0.214 C 
ATOM      4  H1  <0> d          -0.820   3.701   0.841  0.00  0.00     0.112 H 
ATOM      5  N1  <0> d          -0.726   1.573   1.208  0.00  0.00     0.101 N 
ATOM      6  C4  <0> d          -0.013   1.086   0.008  0.00  0.00     0.113 C 
ATOM      7  C5  <0> d          -2.584   3.082   1.669  0.00  0.00     0.095 C 
ATOM      8  N2  <0> d          -3.461   3.299   2.359  0.00  0.00    -0.195 NA
ATOM      9  H2  <0> d          -0.109   2.223  -1.838  0.00  0.00     0.035 H 
ATOM     10  H3  <0> d          -1.143   0.755  -1.815  0.00  0.00     0.035 H 
ATOM     11  H4  <0> d          -2.111   3.326  -1.276  0.00  0.00     0.037 H 
ATOM     12  H5  <0> d          -2.862   1.827  -0.631  0.00  0.00     0.037 H 
ATOM     13  H6  <0> d          -0.024   1.827   2.016  0.00  0.00     0.317 HD
ATOM     14  H7  <0> d           0.006  -0.014  -0.011  0.00  0.00     0.079 H 
ATOM     15  H8  <0> d           1.018   1.471  -0.012  0.00  0.00     0.079 H 
ENDROOT
TORSDOF 0
