REMARK  2 active torsions:
REMARK  status: ('A' for Active; 'I' for Inactive)
REMARK    1  A    between atoms: C1_1  and  C2_2 
REMARK    2  A    between atoms: C4_4  and  N2_9 
ROOT
ATOM      1  C2  <0> d           0.002  -0.004   0.002  0.00  0.00     0.034 A 
ATOM      2  C3  <0> d           0.005  -0.678  -1.201  0.00  0.00    -0.034 A 
ATOM      3  C4  <0> d           0.025  -2.073  -1.197  0.00  0.00     0.030 A 
ATOM      4  C5  <0> d           0.039  -2.730   0.033  0.00  0.00    -0.019 A 
ATOM      5  C6  <0> d           0.035  -1.982   1.193  0.00  0.00     0.128 A 
ATOM      6  N1  <0> d           0.022  -0.662   1.146  0.00  0.00    -0.242 NA
ATOM      7 Cl1  <0> d           0.053  -2.786   2.731  0.00  0.00    -0.062 Cl
ATOM      8  H4  <0> d          -0.007  -0.133  -2.133  0.00  0.00     0.090 H 
ATOM      9  H5  <0> d           0.054  -3.809   0.077  0.00  0.00     0.091 H 
ENDROOT
BRANCH   1  10
ATOM     10  C1  <0> d          -0.018   1.503   0.010  0.00  0.00    -0.035 C 
ATOM     11  H1  <0> d           1.004   1.880   0.003  0.00  0.00     0.035 H 
ATOM     12  H2  <0> d          -0.545   1.864  -0.873  0.00  0.00     0.035 H 
ATOM     13  H3  <0> d          -0.529   1.854   0.907  0.00  0.00     0.035 H 
ENDBRANCH   1  10
BRANCH   3  14
ATOM     14  N2  <0> d           0.028  -2.790  -2.390  0.00  0.00    -0.399 N 
ATOM     15  H6  <0> d           0.017  -2.320  -3.238  0.00  0.00     0.156 HD
ATOM     16  H7  <0> d           0.041  -3.760  -2.373  0.00  0.00     0.156 HD
ENDBRANCH   3  14
TORSDOF 2
