REMARK  3 active torsions:
REMARK  status: ('A' for Active; 'I' for Inactive)
REMARK    1  A    between atoms: C1_1  and  C2_2 
REMARK    2  A    between atoms: C2_2  and  C3_3 
REMARK    3  A    between atoms: C3_3  and  C4_4 
ROOT
ATOM      1  C4  <0> d           2.133   1.544  -1.260  0.00  0.00     0.048 C 
ATOM      2  H1  <0> d           1.629   1.936  -2.144  0.00  0.00     0.084 H 
ATOM      3  C5  <0> d           1.423   2.047  -0.001  0.00  0.00    -0.040 C 
ATOM      4  C6  <0> d          -0.019   1.529   0.011  0.00  0.00    -0.054 C 
ATOM      5  C7  <0> d           0.002  -0.004   0.002  0.00  0.00     0.016 C 
ATOM      6  C8  <0> d           0.869  -0.463  -1.150  0.00  0.00     0.259 C 
ATOM      7  O1  <0> d           0.476  -1.300  -1.928  0.00  0.00    -0.265 OA
ATOM      8  O2  <0> d           2.093   0.089  -1.284  0.00  0.00    -0.316 OA
ATOM      9  H9  <0> d           1.418   3.137   0.004  0.00  0.00     0.036 H 
ATOM     10  H10 <0> d           1.947   1.682   0.883  0.00  0.00     0.036 H 
ATOM     11  H11 <0> d          -0.543   1.892  -0.874  0.00  0.00     0.033 H 
ATOM     12  H12 <0> d          -0.526   1.882   0.908  0.00  0.00     0.033 H 
ATOM     13  H13 <0> d           0.415  -0.371   0.942  0.00  0.00     0.048 H 
ATOM     14  H14 <0> d          -1.011  -0.384  -0.126  0.00  0.00     0.048 H 
ENDROOT
BRANCH   1  15
ATOM     15  C3  <0> d           3.589   2.015  -1.249  0.00  0.00    -0.041 C 
ATOM     16  H7  <0> d           3.619   3.099  -1.142  0.00  0.00     0.036 H 
ATOM     17  H8  <0> d           4.114   1.552  -0.413  0.00  0.00     0.036 H 
BRANCH  15  18
ATOM     18  C2  <0> d           4.265   1.612  -2.561  0.00  0.00    -0.066 C 
ATOM     19  H5  <0> d           4.235   0.528  -2.668  0.00  0.00     0.032 H 
ATOM     20  H6  <0> d           3.740   2.075  -3.397  0.00  0.00     0.032 H 
BRANCH  18  21
ATOM     21  C1  <0> d           5.721   2.083  -2.550  0.00  0.00    -0.076 C 
ATOM     22  H2  <0> d           5.751   3.167  -2.443  0.00  0.00     0.027 H 
ATOM     23  H3  <0> d           6.246   1.621  -1.714  0.00  0.00     0.027 H 
ATOM     24  H4  <0> d           6.203   1.796  -3.485  0.00  0.00     0.027 H 
ENDBRANCH  18  21
ENDBRANCH  15  18
ENDBRANCH   1  15
TORSDOF 3
