REMARK  5 active torsions:
REMARK  status: ('A' for Active; 'I' for Inactive)
REMARK    1  A    between atoms: C1_1  and  C2_2 
REMARK    2  A    between atoms: C2_2  and  C3_3 
REMARK    3  A    between atoms: C3_3  and  C4_5 
REMARK    4  A    between atoms: C3_3  and  N1_6 
REMARK    5  A    between atoms: C5_7  and  C8_11 
ROOT
ATOM      1  C3  <0> d          -0.729   1.579   1.267  0.00  0.00     0.031 C 
ATOM      2  H1  <0> d          -1.776   1.277   1.232  0.00  0.00     0.075 H 
ENDROOT
BRANCH   1   3
ATOM      3  C2  <0> d          -0.013   1.086   0.008  0.00  0.00    -0.048 C 
ATOM      4  H5  <0> d           0.002  -0.004   0.002  0.00  0.00     0.035 H 
ATOM      5  H6  <0> d           1.010   1.463   0.000  0.00  0.00     0.035 H 
BRANCH   3   6
ATOM      6  C1  <0> d          -0.753   1.593  -1.232  0.00  0.00    -0.075 C 
ATOM      7  H2  <0> d          -1.775   1.215  -1.224  0.00  0.00     0.027 H 
ATOM      8  H3  <0> d          -0.767   2.683  -1.226  0.00  0.00     0.027 H 
ATOM      9  H4  <0> d          -0.242   1.241  -2.128  0.00  0.00     0.027 H 
ENDBRANCH   3   6
ENDBRANCH   1   3
BRANCH   1  10
ATOM     10  C4  <0> d          -0.641   3.105   1.339  0.00  0.00    -0.055 C 
ATOM     11  H7  <0> d          -1.151   3.457   2.235  0.00  0.00     0.030 H 
ATOM     12  H8  <0> d           0.406   3.407   1.374  0.00  0.00     0.030 H 
ATOM     13  H9  <0> d          -1.115   3.538   0.458  0.00  0.00     0.030 H 
ENDBRANCH   1  10
BRANCH   1  14
ATOM     14  N1  <0> d          -0.092   0.997   2.451  0.00  0.00    -0.270 N 
ATOM     15  N2  <0> d           1.246   1.163   2.832  0.00  0.00    -0.184 NA
ATOM     16  C7  <0> d           1.441   0.493   3.940  0.00  0.00     0.024 A 
ATOM     17  C6  <0> d           0.235  -0.119   4.298  0.00  0.00    -0.041 A 
ATOM     18  H11 <0> d           2.372   0.425   4.483  0.00  0.00     0.117 H 
ATOM     19  C5  <0> d          -0.692   0.212   3.370  0.00  0.00     0.028 A 
ATOM     20  H10 <0> d           0.072  -0.741   5.165  0.00  0.00     0.088 H 
BRANCH  19  21
ATOM     21  C8  <0> d          -2.135  -0.223   3.361  0.00  0.00    -0.036 C 
ATOM     22  H12 <0> d          -2.229  -1.160   2.813  0.00  0.00     0.035 H 
ATOM     23  H13 <0> d          -2.478  -0.365   4.386  0.00  0.00     0.035 H 
ATOM     24  H14 <0> d          -2.742   0.543   2.878  0.00  0.00     0.035 H 
ENDBRANCH  19  21
ENDBRANCH   1  14
TORSDOF 5
