REMARK  1 active torsions:
REMARK  status: ('A' for Active; 'I' for Inactive)
REMARK    1  A    between atoms: C5_5  and  N2_9 
ROOT
ATOM      1  C1  <0> d           1.165   1.801   0.001  0.00  0.00    -0.064 A 
ATOM      2  C2  <0> d          -0.013   1.076   0.008  0.00  0.00    -0.053 A 
ATOM      3  C3  <0> d          -1.217   1.773   0.017  0.00  0.00     0.063 A 
ATOM      4  C4  <0> d          -1.189   3.181   0.030  0.00  0.00     0.110 A 
ATOM      5  C5  <0> d          -2.591   3.612   0.045  0.00  0.00     0.072 A 
ATOM      6  C6  <0> d          -3.347   2.497   0.047  0.00  0.00     0.005 A 
ATOM      7  N1  <0> d          -2.538   1.387   0.034  0.00  0.00    -0.362 N 
ATOM      8  H1  <0> d          -2.798   0.318   0.035  0.00  0.00     0.165 HD
ATOM      9  N3  <0> d          -0.029   3.831   0.023  0.00  0.00    -0.256 NA
ATOM     10  C7  <0> d           1.118   3.187   0.009  0.00  0.00     0.003 A 
ATOM     11  H2  <0> d           2.117   1.291  -0.012  0.00  0.00     0.085 H 
ATOM     12  H3  <0> d           0.002  -0.004   0.002  0.00  0.00     0.087 H 
ATOM     13  H4  <0> d          -4.427   2.479   0.057  0.00  0.00     0.114 H 
ATOM     14  H7  <0> d           2.040   3.749   0.003  0.00  0.00     0.114 H 
ENDROOT
BRANCH   5  15
ATOM     15  N2  <0> d          -3.059   4.940   0.057  0.00  0.00    -0.396 N 
ATOM     16  H5  <0> d          -4.140   5.142   0.068  0.00  0.00     0.156 HD
ATOM     17  H6  <0> d          -2.343   5.775   0.055  0.00  0.00     0.156 HD
ENDBRANCH   5  15
TORSDOF 1
