REMARK  1 active torsions:
REMARK  status: ('A' for Active; 'I' for Inactive)
REMARK    1  A    between atoms: C1_1  and  C2_2 
ROOT
ATOM      1  C2  <0> d           0.002  -0.004   0.002  0.00  0.00     0.126 A 
ATOM      2  N1  <0> d           0.005  -0.629  -1.153  0.00  0.00    -0.230 NA
ATOM      3  C3  <0> d           0.023  -1.966  -1.201  0.00  0.00     0.110 A 
ATOM      4  C4  <0> d           0.030  -2.916  -2.245  0.00  0.00     0.052 A 
ATOM      5  N2  <0> d           0.048  -4.111  -1.724  0.00  0.00    -0.184 NA
ATOM      6  N3  <0> d           0.054  -4.015  -0.326  0.00  0.00    -0.272 N 
ATOM      7  H1  <0> d           0.067  -4.759   0.296  0.00  0.00     0.189 HD
ATOM      8  C5  <0> d           0.039  -2.688   0.007  0.00  0.00     0.136 A 
ATOM      9  C6  <0> d           0.035  -1.971   1.209  0.00  0.00     0.233 A 
ATOM     10  O1  <0> d           0.050  -2.618   2.400  0.00  0.00    -0.168 OA
ATOM     11  N4  <0> d           0.022  -0.646   1.158  0.00  0.00    -0.205 NA
ATOM     12  H5  <0> d           0.021  -2.691  -3.301  0.00  0.00     0.121 H 
ENDROOT
BRANCH   1  13
ATOM     13  C1  <0> d          -0.018   1.503   0.010  0.00  0.00    -0.019 C 
ATOM     14  H2  <0> d           1.004   1.880   0.003  0.00  0.00     0.037 H 
ATOM     15  H3  <0> d          -0.545   1.864  -0.873  0.00  0.00     0.037 H 
ATOM     16  H4  <0> d          -0.529   1.854   0.907  0.00  0.00     0.037 H 
ENDBRANCH   1  13
TORSDOF 1
