REMARK  0 active torsions:
REMARK  status: ('A' for Active; 'I' for Inactive)
ROOT
ATOM      1  C1  <0> d           1.211  -0.680  -0.014  0.00  0.00     0.043 A 
ATOM      2  C2  <0> d           0.002  -0.004   0.002  0.00  0.00     0.143 A 
ATOM      3  N1  <0> d          -0.016   1.318   0.009  0.00  0.00    -0.244 NA
ATOM      4  C3  <0> d           1.119   1.994   0.002  0.00  0.00     0.043 A 
ATOM      5  C4  <0> d           2.328   1.318  -0.013  0.00  0.00     0.143 A 
ATOM      6  N2  <0> d           2.346  -0.004  -0.021  0.00  0.00    -0.244 NA
ATOM      7 Cl1  <0> d           3.819   2.207  -0.022  0.00  0.00    -0.061 Cl
ATOM      8 Cl2  <0> d          -1.489  -0.892   0.011  0.00  0.00    -0.061 Cl
ATOM      9  H1  <0> d           1.225  -1.760  -0.020  0.00  0.00     0.119 H 
ATOM     10  H2  <0> d           1.105   3.074   0.008  0.00  0.00     0.119 H 
ENDROOT
TORSDOF 0
