REMARK  3 active torsions:
REMARK  status: ('A' for Active; 'I' for Inactive)
REMARK    1  A    between atoms: C1_1  and  N1_2 
REMARK    2  A    between atoms: N1_2  and  C2_3 
REMARK    3  A    between atoms: N1_2  and  C8_9 
ROOT
ATOM      1  N1  <0> d           0.002  -0.004   0.002  0.00  0.00    -0.380 N 
ENDROOT
BRANCH   1   2
ATOM      2  C1  <0> d          -0.018   1.461   0.010  0.00  0.00    -0.018 C 
ATOM      3  H1  <0> d           1.005   1.838   0.002  0.00  0.00     0.056 H 
ATOM      4  H2  <0> d          -0.545   1.822  -0.873  0.00  0.00     0.056 H 
ATOM      5  H3  <0> d          -0.528   1.812   0.907  0.00  0.00     0.056 H 
ENDBRANCH   1   2
BRANCH   1   6
ATOM      6  C2  <0> d           0.023  -0.709   1.208  0.00  0.00     0.030 A 
ATOM      7  C7  <0> d           0.025  -0.022   2.415  0.00  0.00    -0.057 A 
ATOM      8  C6  <0> d           0.041  -0.723   3.606  0.00  0.00    -0.081 A 
ATOM      9  H8  <0> d           0.011   1.058   2.423  0.00  0.00     0.086 H 
ATOM     10  C5  <0> d           0.065  -2.105   3.596  0.00  0.00    -0.083 A 
ATOM     11  H7  <0> d           0.038  -0.190   4.545  0.00  0.00     0.083 H 
ATOM     12  C4  <0> d           0.069  -2.792   2.396  0.00  0.00    -0.081 A 
ATOM     13  H6  <0> d           0.081  -2.650   4.529  0.00  0.00     0.083 H 
ATOM     14  C3  <0> d           0.048  -2.098   1.202  0.00  0.00    -0.057 A 
ATOM     15  H5  <0> d           0.088  -3.871   2.392  0.00  0.00     0.083 H 
ATOM     16  H4  <0> d           0.050  -2.634   0.265  0.00  0.00     0.086 H 
ENDBRANCH   1   6
BRANCH   1  17
ATOM     17  C8  <0> d          -0.000  -0.730  -1.271  0.00  0.00     0.012 A 
ATOM     18  C10 <0> d          -1.188  -0.506  -2.209  0.00  0.00    -0.044 A 
ATOM     19  C9  <0> d           0.180   0.089  -2.551  0.00  0.00    -0.044 A 
ATOM     20  H12 <0> d          -1.529  -1.356  -2.801  0.00  0.00     0.036 H 
ATOM     21  H13 <0> d          -1.967   0.181  -1.880  0.00  0.00     0.036 H 
ATOM     22  H10 <0> d           0.300   1.167  -2.446  0.00  0.00     0.036 H 
ATOM     23  H11 <0> d           0.739  -0.370  -3.367  0.00  0.00     0.036 H 
ATOM     24  H9  <0> d           0.440  -1.727  -1.244  0.00  0.00     0.072 H 
ENDBRANCH   1  17
TORSDOF 3
