REMARK  2 active torsions:
REMARK  status: ('A' for Active; 'I' for Inactive)
REMARK    1  A    between atoms: C1_1  and  N1_2 
REMARK    2  A    between atoms: N1_2  and  C2_3 
ROOT
ATOM      1  C2  <0> d          -1.228   3.272   0.031  0.00  0.00     0.109 A 
ATOM      2  C3  <0> d          -1.237   1.905   0.018  0.00  0.00     0.025 A 
ATOM      3  C4  <0> d          -0.015   1.215   0.009  0.00  0.00     0.252 A 
ATOM      4  O1  <0> d           0.002  -0.004   0.002  0.00  0.00    -0.268 OA
ATOM      5  N2  <0> d           1.141   1.909   0.001  0.00  0.00    -0.275 N 
ATOM      6  H1  <0> d           2.013   1.419  -0.009  0.00  0.00     0.173 HD
ATOM      7  C5  <0> d           1.131   3.254   0.008  0.00  0.00     0.328 A 
ATOM      8  O2  <0> d           2.185   3.860   0.002  0.00  0.00    -0.247 OA
ATOM      9  N3  <0> d          -0.027   3.939   0.023  0.00  0.00    -0.294 N 
ATOM     10  H2  <0> d          -0.014   4.939   0.028  0.00  0.00     0.172 HD
ATOM     11  H7  <0> d          -2.171   1.363   0.020  0.00  0.00     0.098 H 
ENDROOT
BRANCH   1  12
ATOM     12  N1  <0> d          -2.408   3.971   0.047  0.00  0.00    -0.380 N 
ATOM     13  H6  <0> d          -3.253   3.496   0.053  0.00  0.00     0.160 HD
BRANCH  12  14
ATOM     14  C1  <0> d          -2.391   5.436   0.054  0.00  0.00    -0.020 C 
ATOM     15  H3  <0> d          -1.882   5.798  -0.839  0.00  0.00     0.056 H 
ATOM     16  H4  <0> d          -3.414   5.811   0.067  0.00  0.00     0.056 H 
ATOM     17  H5  <0> d          -1.864   5.788   0.941  0.00  0.00     0.056 H 
ENDBRANCH  12  14
ENDBRANCH   1  12
TORSDOF 2
