REMARK  3 active torsions:
REMARK  status: ('A' for Active; 'I' for Inactive)
REMARK    1  A    between atoms: C1_1  and  O1_2 
REMARK    2  A    between atoms: O1_2  and  C2_3 
REMARK    3  A    between atoms: C7_8  and  N1_9 
ROOT
ATOM      1  C2  <0> d          -1.201  -0.638   0.010  0.00  0.00     0.095 A 
ATOM      2  C3  <0> d          -2.369   0.098   0.019  0.00  0.00    -0.029 A 
ATOM      3  C4  <0> d          -3.605  -0.557   0.027  0.00  0.00     0.047 A 
ATOM      4  C5  <0> d          -3.653  -1.954   0.026  0.00  0.00    -0.061 A 
ATOM      5  C6  <0> d          -2.484  -2.683   0.016  0.00  0.00    -0.053 A 
ATOM      6  C7  <0> d          -1.256  -2.033   0.003  0.00  0.00     0.059 A 
ATOM      7  C8  <0> d          -4.819   0.203   0.037  0.00  0.00     0.099 C 
ATOM      8  N2  <0> d          -5.782   0.805   0.045  0.00  0.00    -0.191 NA
ATOM      9  H4  <0> d          -2.329   1.177   0.021  0.00  0.00     0.090 H 
ATOM     10  H5  <0> d          -4.606  -2.461   0.032  0.00  0.00     0.086 H 
ATOM     11  H6  <0> d          -2.522  -3.762   0.015  0.00  0.00     0.087 H 
ENDROOT
BRANCH   1  12
ATOM     12  O1  <0> d           0.002  -0.004   0.002  0.00  0.00    -0.354 OA
BRANCH  12  13
ATOM     13  C1  <0> d          -0.017   1.425   0.010  0.00  0.00     0.010 C 
ATOM     14  H1  <0> d           1.005   1.802   0.002  0.00  0.00     0.066 H 
ATOM     15  H2  <0> d          -0.544   1.786  -0.873  0.00  0.00     0.066 H 
ATOM     16  H3  <0> d          -0.527   1.776   0.907  0.00  0.00     0.066 H 
ENDBRANCH  12  13
ENDBRANCH   1  12
BRANCH   6  17
ATOM     17  N1  <0> d          -0.075  -2.775  -0.012  0.00  0.00    -0.397 N 
ATOM     18  H7  <0> d           0.782  -2.322  -0.018  0.00  0.00     0.156 HD
ATOM     19  H8  <0> d          -0.112  -3.744  -0.017  0.00  0.00     0.156 HD
ENDBRANCH   6  17
TORSDOF 3
