REMARK  1 active torsions:
REMARK  status: ('A' for Active; 'I' for Inactive)
REMARK    1  A    between atoms: C1_1  and  N1_2 
ROOT
ATOM      1  N1  <0> d           1.161   1.779   0.001  0.00  0.00    -0.314 N 
ATOM      2  C2  <0> d          -0.013   1.076   0.008  0.00  0.00    -0.011 A 
ATOM      3  C3  <0> d          -1.189   1.738   0.017  0.00  0.00    -0.002 A 
ATOM      4  C4  <0> d          -1.183   3.154   0.029  0.00  0.00     0.250 A 
ATOM      5  O1  <0> d          -2.231   3.773   0.042  0.00  0.00    -0.268 OA
ATOM      6  N2  <0> d          -0.005   3.810   0.022  0.00  0.00    -0.275 N 
ATOM      7  H1  <0> d           0.009   4.810   0.026  0.00  0.00     0.173 HD
ATOM      8  C5  <0> d           1.154   3.125   0.007  0.00  0.00     0.328 A 
ATOM      9  O2  <0> d           2.208   3.730   0.000  0.00  0.00    -0.246 OA
ATOM     10  H5  <0> d           0.002  -0.004   0.002  0.00  0.00     0.112 H 
ATOM     11  H6  <0> d          -2.123   1.195   0.019  0.00  0.00     0.094 H 
ENDROOT
BRANCH   1  12
ATOM     12  C1  <0> d           2.438   1.061  -0.015  0.00  0.00    -0.010 C 
ATOM     13  H2  <0> d           2.744   0.888  -1.047  0.00  0.00     0.057 H 
ATOM     14  H3  <0> d           3.196   1.655   0.494  0.00  0.00     0.057 H 
ATOM     15  H4  <0> d           2.323   0.104   0.494  0.00  0.00     0.057 H 
ENDBRANCH   1  12
TORSDOF 1
