REMARK  3 active torsions:
REMARK  status: ('A' for Active; 'I' for Inactive)
REMARK    1  A    between atoms: C1_1  and  C2_2 
REMARK    2  A    between atoms: C1_1  and  C4_7 
REMARK    3  A    between atoms: C2_2  and  C3_3 
ROOT
ATOM      1  C2  <0> d          -0.733   1.888   1.268  0.00  0.00     0.035 C 
ATOM      2  H3  <0> d          -0.748   2.978   1.274  0.00  0.00     0.046 H 
ATOM      3  H4  <0> d          -1.756   1.511   1.276  0.00  0.00     0.046 H 
ENDROOT
BRANCH   1   4
ATOM      4  C1  <0> d           0.007   1.381   2.508  0.00  0.00     0.024 C 
ATOM      5  H1  <0> d           0.022   0.291   2.502  0.00  0.00     0.049 H 
ATOM      6  H2  <0> d           1.030   1.759   2.500  0.00  0.00     0.049 H 
BRANCH   4   7
ATOM      7  C4  <0> d          -0.698   1.867   3.748  0.00  0.00     0.172 C 
ATOM      8  O1  <0> d          -1.691   2.549   3.650  0.00  0.00    -0.648 OA
ATOM      9  O2  <0> d          -0.224   1.543   4.961  0.00  0.00    -0.648 OA
ENDBRANCH   4   7
ENDBRANCH   1   4
BRANCH   1  10
ATOM     10  C3  <0> d          -0.017   1.395   0.010  0.00  0.00     0.388 C 
ATOM     11  F1  <0> d           0.002  -0.004   0.002  0.00  0.00    -0.171 F 
ATOM     12  F2  <0> d           1.296   1.879  -0.000  0.00  0.00    -0.171 F 
ATOM     13  F3  <0> d          -0.694   1.858  -1.124  0.00  0.00    -0.171 F 
ENDBRANCH   1  10
TORSDOF 3
