REMARK  3 active torsions:
REMARK  status: ('A' for Active; 'I' for Inactive)
REMARK    1  A    between atoms: C1_1  and  C2_2 
REMARK    2  A    between atoms: C2_2  and  C3_3 
REMARK    3  A    between atoms: C3_3  and  C4_4 
ROOT
ATOM      1  C3  <0> d          -2.014   4.243   0.042  0.00  0.00    -0.041 C 
ATOM      2  H6  <0> d          -1.717   5.165   0.563  0.00  0.00     0.040 H 
ATOM      3  H7  <0> d          -2.865   3.784   0.566  0.00  0.00     0.040 H 
ENDROOT
BRANCH   1   4
ATOM      4  C2  <0> d          -2.419   4.576  -1.395  0.00  0.00    -0.065 C 
ATOM      5  H4  <0> d          -2.716   3.654  -1.916  0.00  0.00     0.032 H 
ATOM      6  H5  <0> d          -1.567   5.035  -1.919  0.00  0.00     0.032 H 
BRANCH   4   7
ATOM      7  C1  <0> d          -3.595   5.554  -1.380  0.00  0.00    -0.076 C 
ATOM      8  H1  <0> d          -3.886   5.794  -2.413  0.00  0.00     0.027 H 
ATOM      9  H2  <0> d          -3.298   6.476  -0.859  0.00  0.00     0.027 H 
ATOM     10  H3  <0> d          -4.447   5.095  -0.856  0.00  0.00     0.027 H 
ENDBRANCH   4   7
ENDBRANCH   1   4
BRANCH   1  11
ATOM     11  C4  <0> d          -0.855   3.279   0.027  0.00  0.00    -0.051 A 
ATOM     12  C7  <0> d           0.421   3.738   0.017  0.00  0.00    -0.039 A 
ATOM     13  S1  <0> d           1.359   2.219   0.001  0.00  0.00    -0.113 SA
ATOM     14  H10 <0> d           0.777   4.757   0.019  0.00  0.00     0.095 H 
ATOM     15  C6  <0> d          -0.013   1.076   0.008  0.00  0.00    -0.045 A 
ATOM     16  C5  <0> d          -1.077   1.915   0.017  0.00  0.00    -0.070 A 
ATOM     17  H9  <0> d           0.002  -0.004   0.002  0.00  0.00     0.095 H 
ATOM     18  H8  <0> d          -2.083   1.524   0.018  0.00  0.00     0.085 H 
ENDBRANCH   1  11
TORSDOF 3
