REMARK  2 active torsions:
REMARK  status: ('A' for Active; 'I' for Inactive)
REMARK    1  A    between atoms: C3_3  and  C7_8 
REMARK    2  A    between atoms: C7_8  and  O1_9 
ROOT
ATOM      1  C1  <0> d           1.174   1.783   0.000  0.00  0.00    -0.080 A 
ATOM      2  C2  <0> d           1.156   3.166   0.008  0.00  0.00    -0.075 A 
ATOM      3  C3  <0> d          -0.050   3.842   0.022  0.00  0.00    -0.032 A 
ATOM      4  C4  <0> d          -1.238   3.136   0.030  0.00  0.00    -0.038 A 
ATOM      5  C5  <0> d          -1.221   1.752   0.017  0.00  0.00     0.117 A 
ATOM      6  C6  <0> d          -0.013   1.076   0.008  0.00  0.00    -0.046 A 
ATOM      7  F1  <0> d          -2.382   1.062   0.019  0.00  0.00    -0.206 F 
ATOM      8  H1  <0> d           2.117   1.256  -0.011  0.00  0.00     0.083 H 
ATOM      9  H2  <0> d           2.084   3.718   0.001  0.00  0.00     0.084 H 
ATOM     10  H3  <0> d          -2.180   3.665   0.042  0.00  0.00     0.089 H 
ATOM     11  H4  <0> d           0.002  -0.004   0.002  0.00  0.00     0.088 H 
ENDROOT
BRANCH   3  12
ATOM     12  C7  <0> d          -0.068   5.349   0.029  0.00  0.00     0.041 C 
ATOM     13  H5  <0> d          -0.957   5.699   0.553  0.00  0.00     0.081 H 
ATOM     14  H6  <0> d           0.822   5.721   0.536  0.00  0.00     0.081 H 
BRANCH  12  15
ATOM     15  O1  <0> d          -0.087   5.831  -1.316  0.00  0.00    -0.396 OA
ATOM     16  H7  <0> d          -0.100   6.795  -1.388  0.00  0.00     0.209 HD
ENDBRANCH  12  15
ENDBRANCH   3  12
TORSDOF 2
