REMARK  0 active torsions:
REMARK  status: ('A' for Active; 'I' for Inactive)
ROOT
ATOM      1  C1  <0> d          -0.017   1.401   0.010  0.00  0.00    -0.041 A 
ATOM      2  C2  <0> d          -1.216   2.051   0.019  0.00  0.00    -0.015 A 
ATOM      3  C3  <0> d          -2.405   1.304   0.021  0.00  0.00     0.245 A 
ATOM      4  N1  <0> d          -2.358  -0.042   0.013  0.00  0.00    -0.331 N 
ATOM      5  C4  <0> d          -1.166  -0.696   0.004  0.00  0.00     0.015 A 
ATOM      6  C5  <0> d           0.002  -0.004   0.002  0.00  0.00     0.122 A 
ATOM      7  O1  <0> d           1.189  -0.670  -0.013  0.00  0.00    -0.191 OA
ATOM      8  O2  <0> d          -3.484   1.876   0.029  0.00  0.00    -0.268 OA
ATOM      9  H1  <0> d           0.907   1.959   0.004  0.00  0.00     0.088 H 
ATOM     10  H2  <0> d          -1.250   3.131   0.025  0.00  0.00     0.092 H 
ATOM     11  H3  <0> d          -1.148  -1.776  -0.001  0.00  0.00     0.116 H 
ATOM     12  H4  <0> d          -3.184  -0.550   0.015  0.00  0.00     0.168 HD
ENDROOT
TORSDOF 0
