REMARK  8 active torsions:
REMARK  status: ('A' for Active; 'I' for Inactive)
REMARK    1  A    between atoms: C1_1  and  C2_2 
REMARK    2  A    between atoms: C2_2  and  C3_3 
REMARK    3  A    between atoms: C3_3  and  C4_5 
REMARK    4  A    between atoms: C3_3  and  C5_6 
REMARK    5  A    between atoms: C6_7  and  C7_8 
REMARK    6  A    between atoms: C7_8  and  C8_9 
REMARK    7  A    between atoms: C7_8  and  C9_10 
REMARK    8  A    between atoms: C7_8  and  O1_11 
ROOT
ATOM      1  C5  <0> d          -0.013   1.076   0.008  0.00  0.00    -0.100 C 
ATOM      2  C6  <0> d          -1.156   1.715   0.017  0.00  0.00    -0.074 C 
ATOM      3  H10 <0> d           0.002  -0.004   0.002  0.00  0.00     0.077 H 
ATOM      4  H11 <0> d          -1.171   2.795   0.023  0.00  0.00     0.081 H 
ENDROOT
BRANCH   1   5
ATOM      5  C3  <0> d           1.282   1.847  -0.000  0.00  0.00    -0.042 C 
ATOM      6  H1  <0> d           1.069   2.916   0.007  0.00  0.00     0.045 H 
BRANCH   5   7
ATOM      7  C2  <0> d           2.101   1.482   1.239  0.00  0.00    -0.062 C 
ATOM      8  H5  <0> d           1.501   1.649   2.134  0.00  0.00     0.033 H 
ATOM      9  H6  <0> d           2.390   0.432   1.187  0.00  0.00     0.033 H 
BRANCH   7  10
ATOM     10  C1  <0> d           3.357   2.354   1.296  0.00  0.00    -0.076 C 
ATOM     11  H2  <0> d           3.957   2.187   0.402  0.00  0.00     0.027 H 
ATOM     12  H3  <0> d           3.067   3.404   1.349  0.00  0.00     0.027 H 
ATOM     13  H4  <0> d           3.940   2.094   2.179  0.00  0.00     0.027 H 
ENDBRANCH   7  10
ENDBRANCH   5   7
BRANCH   5  14
ATOM     14  C4  <0> d           2.077   1.495  -1.259  0.00  0.00    -0.070 C 
ATOM     15  H7  <0> d           1.494   1.755  -2.142  0.00  0.00     0.028 H 
ATOM     16  H8  <0> d           3.014   2.053  -1.265  0.00  0.00     0.028 H 
ATOM     17  H9  <0> d           2.291   0.426  -1.267  0.00  0.00     0.028 H 
ENDBRANCH   5  14
ENDBRANCH   1   5
BRANCH   2  18
ATOM     18  C7  <0> d          -2.451   0.944   0.019  0.00  0.00     0.068 C 
BRANCH  18  19
ATOM     19  C8  <0> d          -3.252   1.296   1.274  0.00  0.00    -0.045 C 
ATOM     20  H12 <0> d          -3.466   2.365   1.281  0.00  0.00     0.032 H 
ATOM     21  H13 <0> d          -4.188   0.738   1.275  0.00  0.00     0.032 H 
ATOM     22  H14 <0> d          -2.673   1.036   2.160  0.00  0.00     0.032 H 
ENDBRANCH  18  19
BRANCH  18  23
ATOM     23  C9  <0> d          -3.264   1.310  -1.225  0.00  0.00    -0.045 C 
ATOM     24  H15 <0> d          -2.693   1.059  -2.119  0.00  0.00     0.032 H 
ATOM     25  H16 <0> d          -4.200   0.752  -1.223  0.00  0.00     0.032 H 
ATOM     26  H17 <0> d          -3.477   2.378  -1.218  0.00  0.00     0.032 H 
ENDBRANCH  18  23
BRANCH  18  27
ATOM     27  O1  <0> d          -2.170  -0.457   0.010  0.00  0.00    -0.387 OA
ATOM     28  H18 <0> d          -1.657  -0.760   0.771  0.00  0.00     0.211 HD
ENDBRANCH  18  27
ENDBRANCH   2  18
TORSDOF 8
