REMARK  5 active torsions:
REMARK  status: ('A' for Active; 'I' for Inactive)
REMARK    1  A    between atoms: C1_1  and  C2_2 
REMARK    2  A    between atoms: C2_2  and  C3_3 
REMARK    3  A    between atoms: C2_2  and  C4_4 
REMARK    4  A    between atoms: C2_2  and  C5_5 
REMARK    5  A    between atoms: C6_7  and  N4_11 
ROOT
ATOM      1  C2  <0> d           0.002  -0.004   0.002  0.00  0.00     0.014 C 
ENDROOT
BRANCH   1   2
ATOM      2  C1  <0> d          -0.019   1.526   0.010  0.00  0.00    -0.063 C 
ATOM      3  H2  <0> d           1.004   1.903   0.003  0.00  0.00     0.029 H 
ATOM      4  H3  <0> d          -0.546   1.887  -0.873  0.00  0.00     0.029 H 
ATOM      5  H4  <0> d          -0.529   1.877   0.907  0.00  0.00     0.029 H 
ENDBRANCH   1   2
BRANCH   1   6
ATOM      6  C3  <0> d           0.742  -0.511   1.242  0.00  0.00    -0.063 C 
ATOM      7  H5  <0> d           0.232  -0.159   2.138  0.00  0.00     0.029 H 
ATOM      8  H6  <0> d           0.757  -1.601   1.236  0.00  0.00     0.029 H 
ATOM      9  H7  <0> d           1.765  -0.134   1.234  0.00  0.00     0.029 H 
ENDBRANCH   1   6
BRANCH   1  10
ATOM     10  C4  <0> d          -1.433  -0.534   0.013  0.00  0.00    -0.063 C 
ATOM     11  H8  <0> d          -1.960  -0.173  -0.870  0.00  0.00     0.029 H 
ATOM     12  H9  <0> d          -1.419  -1.623   0.007  0.00  0.00     0.029 H 
ATOM     13  H10 <0> d          -1.944  -0.182   0.910  0.00  0.00     0.029 H 
ENDBRANCH   1  10
BRANCH   1  14
ATOM     14  C5  <0> d           0.707  -0.490  -1.238  0.00  0.00     0.173 A 
ATOM     15  N3  <0> d           1.222   0.273  -2.164  0.00  0.00    -0.143 NA
ATOM     16  N2  <0> d           1.781  -0.578  -3.132  0.00  0.00    -0.106 N 
ATOM     17  C6  <0> d           1.548  -1.838  -2.710  0.00  0.00     0.716 A 
ATOM     18  H1  <0> d           2.239  -0.312  -3.945  0.00  0.00     0.208 HD
ATOM     19  N1  <0> d           0.901  -1.768  -1.567  0.00  0.00    -0.046 NA
BRANCH  17  20
ATOM     20  N4  <0> d           1.925  -2.998  -3.363  0.00  0.00    -0.231 N 
ATOM     21  H11 <0> d           1.712  -3.863  -2.978  0.00  0.00     0.174 HD
ATOM     22  H12 <0> d           2.402  -2.947  -4.206  0.00  0.00     0.174 HD
ENDBRANCH  17  20
ENDBRANCH   1  14
TORSDOF 5
