REMARK  0 active torsions:
REMARK  status: ('A' for Active; 'I' for Inactive)
ROOT
ATOM      1  C1  <0> d          -0.730   1.620   1.256  0.00  0.00    -0.052 C 
ATOM      2  C2  <0> d          -0.794   3.163   1.168  0.00  0.00    -0.045 C 
ATOM      3  C3  <0> d          -0.106   3.647  -0.115  0.00  0.00     0.012 C 
ATOM      4  C4  <0> d           1.354   3.181  -0.090  0.00  0.00    -0.045 C 
ATOM      5  C5  <0> d           1.412   1.655  -0.003  0.00  0.00    -0.052 C 
ATOM      6  C6  <0> d          -0.013   1.086   0.008  0.00  0.00     0.024 C 
ATOM      7  C7  <0> d          -0.734   1.629  -1.219  0.00  0.00     0.222 C 
ATOM      8  O1  <0> d          -1.211   0.920  -2.079  0.00  0.00    -0.273 OA
ATOM      9  N1  <0> d          -0.775   2.997  -1.264  0.00  0.00    -0.356 N 
ATOM     10  H1  <0> d          -1.739   1.208   1.300  0.00  0.00     0.034 H 
ATOM     11  H2  <0> d          -0.178   1.322   2.148  0.00  0.00     0.034 H 
ATOM     12  H3  <0> d          -0.287   3.589   2.033  0.00  0.00     0.036 H 
ATOM     13  H4  <0> d          -1.835   3.487   1.164  0.00  0.00     0.036 H 
ATOM     14  H5  <0> d          -0.161   4.731  -0.203  0.00  0.00     0.072 H 
ATOM     15  H6  <0> d           1.857   3.613   0.775  0.00  0.00     0.036 H 
ATOM     16  H7  <0> d           1.855   3.511  -1.001  0.00  0.00     0.036 H 
ATOM     17  H8  <0> d           1.927   1.363   0.913  0.00  0.00     0.034 H 
ATOM     18  H9  <0> d           1.954   1.262  -0.863  0.00  0.00     0.034 H 
ATOM     19  H10 <0> d           0.002  -0.004   0.002  0.00  0.00     0.054 H 
ATOM     20  H11 <0> d          -1.201   3.492  -1.980  0.00  0.00     0.162 HD
ENDROOT
TORSDOF 0
