REMARK  6 active torsions:
REMARK  status: ('A' for Active; 'I' for Inactive)
REMARK    1  A    between atoms: C1_1  and  C2_2 
REMARK    2  A    between atoms: C2_2  and  C3_3 
REMARK    3  A    between atoms: C3_3  and  C4_5 
REMARK    4  A    between atoms: C3_3  and  O1_12 
REMARK    5  A    between atoms: N2_8  and  C7_10 
REMARK    6  A    between atoms: C7_10  and  C8_11 
ROOT
ATOM      1  C4  <0> d           3.168   3.114  -0.557  0.00  0.00     0.007 A 
ATOM      2  C5  <0> d           3.448   2.353   0.582  0.00  0.00     0.032 A 
ATOM      3  N1  <0> d           2.361   1.708   0.920  0.00  0.00    -0.185 NA
ATOM      4  N2  <0> d           1.356   2.033   0.000  0.00  0.00    -0.281 N 
ATOM      5  C6  <0> d           1.875   2.900  -0.894  0.00  0.00     0.008 A 
ATOM      6  H7  <0> d           4.397   2.308   1.096  0.00  0.00     0.118 H 
ATOM      7  H8  <0> d           1.353   3.342  -1.729  0.00  0.00     0.115 H 
ENDROOT
BRANCH   1   8
ATOM      8  C3  <0> d           4.135   4.015  -1.281  0.00  0.00     0.063 C 
ATOM      9  H1  <0> d           3.820   4.157  -2.325  0.00  0.00     0.090 H 
BRANCH   8  10
ATOM     10  C2  <0> d           4.246   5.347  -0.537  0.00  0.00    -0.040 C 
ATOM     11  H5  <0> d           4.693   5.178   0.454  0.00  0.00     0.036 H 
ATOM     12  H6  <0> d           3.244   5.785  -0.418  0.00  0.00     0.036 H 
BRANCH  10  13
ATOM     13  C1  <0> d           5.130   6.306  -1.338  0.00  0.00    -0.074 C 
ATOM     14  H2  <0> d           5.210   7.264  -0.803  0.00  0.00     0.027 H 
ATOM     15  H3  <0> d           4.684   6.476  -2.329  0.00  0.00     0.027 H 
ATOM     16  H4  <0> d           6.132   5.868  -1.457  0.00  0.00     0.027 H 
ENDBRANCH  10  13
ENDBRANCH   8  10
BRANCH   8  17
ATOM     17  O1  <0> d           5.420   3.390  -1.334  0.00  0.00    -0.391 OA
ATOM     18  H14 <0> d           5.538   2.417  -1.833  0.00  0.00     0.210 HD
ENDBRANCH   8  17
ENDBRANCH   1   8
BRANCH   4  19
ATOM     19  C7  <0> d          -0.019   1.526   0.010  0.00  0.00     0.013 C 
ATOM     20  H9  <0> d          -0.534   1.881   0.915  0.00  0.00     0.066 H 
ATOM     21  H10 <0> d          -0.551   1.890  -0.881  0.00  0.00     0.066 H 
BRANCH  19  22
ATOM     22  C8  <0> d           0.002  -0.004   0.002  0.00  0.00    -0.059 C 
ATOM     23  H11 <0> d          -1.030  -0.385   0.010  0.00  0.00     0.029 H 
ATOM     24  H12 <0> d           0.534  -0.368   0.893  0.00  0.00     0.029 H 
ATOM     25  H13 <0> d           0.517  -0.359  -0.903  0.00  0.00     0.029 H 
ENDBRANCH  19  22
ENDBRANCH   4  19
TORSDOF 6
