REMARK  3 active torsions:
REMARK  status: ('A' for Active; 'I' for Inactive)
REMARK    1  A    between atoms: C1_1  and  C2_2 
REMARK    2  A    between atoms: N2_6  and  C5_7 
REMARK    3  A    between atoms: C5_7  and  C6_8 
ROOT
ATOM      1  C6  <0> d          -0.753   1.593  -1.232  0.00  0.00     0.031 C 
ATOM      2  C7  <0> d          -0.064   1.118  -2.443  0.00  0.00     0.060 C 
ATOM      3  N3  <0> d           0.468   0.752  -3.377  0.00  0.00    -0.197 NA
ATOM      4  H8  <0> d          -1.775   1.215  -1.224  0.00  0.00     0.057 H 
ATOM      5  H9  <0> d          -0.767   2.683  -1.226  0.00  0.00     0.057 H 
ENDROOT
BRANCH   1   6
ATOM      6  C5  <0> d          -0.013   1.086   0.008  0.00  0.00     0.028 C 
ATOM      7  H6  <0> d           0.002  -0.004   0.002  0.00  0.00     0.068 H 
ATOM      8  H7  <0> d           1.010   1.463   0.000  0.00  0.00     0.068 H 
BRANCH   6   9
ATOM      9  N2  <0> d          -0.698   1.558   1.213  0.00  0.00    -0.274 N 
ATOM     10  C2  <0> d          -0.449   2.711   1.869  0.00  0.00     0.028 A 
ATOM     11  C3  <0> d          -1.294   2.778   2.923  0.00  0.00    -0.041 A 
ATOM     12  C4  <0> d          -2.082   1.622   2.917  0.00  0.00     0.024 A 
ATOM     13  H4  <0> d          -1.349   3.580   3.644  0.00  0.00     0.088 H 
ATOM     14  N1  <0> d          -1.725   0.890   1.893  0.00  0.00    -0.185 NA
ATOM     15  H5  <0> d          -2.850   1.376   3.634  0.00  0.00     0.117 H 
BRANCH  10  16
ATOM     16  C1  <0> d           0.585   3.741   1.491  0.00  0.00    -0.036 C 
ATOM     17  H1  <0> d           0.139   4.472   0.816  0.00  0.00     0.035 H 
ATOM     18  H2  <0> d           0.940   4.246   2.390  0.00  0.00     0.035 H 
ATOM     19  H3  <0> d           1.422   3.251   0.995  0.00  0.00     0.035 H 
ENDBRANCH  10  16
ENDBRANCH   6   9
ENDBRANCH   1   6
TORSDOF 3
