REMARK  4 active torsions:
REMARK  status: ('A' for Active; 'I' for Inactive)
REMARK    1  A    between atoms: C1_1  and  N1_2 
REMARK    2  A    between atoms: N1_2  and  C2_3 
REMARK    3  A    between atoms: N1_2  and  C3_4 
REMARK    4  A    between atoms: C5_8  and  N5_10 
ROOT
ATOM      1  C3  <0> d           0.019   1.792   2.369  0.00  0.00     0.740 A 
ATOM      2  N2  <0> d          -0.602   2.226   3.463  0.00  0.00    -0.055 NA
ATOM      3  C4  <0> d           0.083   2.446   4.571  0.00  0.00     0.124 A 
ATOM      4  N3  <0> d           1.389   2.244   4.595  0.00  0.00    -0.055 NA
ATOM      5  C5  <0> d           2.018   1.815   3.504  0.00  0.00     0.737 A 
ATOM      6  N4  <0> d           1.332   1.588   2.389  0.00  0.00     0.130 NA
ATOM      7  H7  <0> d          -0.424   2.795   5.458  0.00  0.00     0.148 H 
ENDROOT
BRANCH   1   8
ATOM      8  N1  <0> d          -0.698   1.558   1.213  0.00  0.00    -0.222 N 
BRANCH   8   9
ATOM      9  C1  <0> d          -0.013   1.086   0.008  0.00  0.00    -0.003 C 
ATOM     10  H1  <0> d           0.002  -0.004   0.002  0.00  0.00     0.057 H 
ATOM     11  H2  <0> d           1.010   1.463   0.000  0.00  0.00     0.057 H 
ATOM     12  H3  <0> d          -0.540   1.447  -0.875  0.00  0.00     0.057 H 
ENDBRANCH   8   9
BRANCH   8  13
ATOM     13  C2  <0> d          -2.146   1.783   1.192  0.00  0.00    -0.003 C 
ATOM     14  H4  <0> d          -2.660   0.866   1.480  0.00  0.00     0.057 H 
ATOM     15  H5  <0> d          -2.401   2.578   1.893  0.00  0.00     0.057 H 
ATOM     16  H6  <0> d          -2.454   2.072   0.187  0.00  0.00     0.057 H 
ENDBRANCH   8  13
ENDBRANCH   1   8
BRANCH   5  17
ATOM     17  N5  <0> d           3.382   1.605   3.530  0.00  0.00    -0.230 N 
ATOM     18  H8  <0> d           3.840   1.293   2.734  0.00  0.00     0.174 HD
ATOM     19  H9  <0> d           3.883   1.771   4.344  0.00  0.00     0.174 HD
ENDBRANCH   5  17
TORSDOF 4
