REMARK  4 active torsions:
REMARK  status: ('A' for Active; 'I' for Inactive)
REMARK    1  A    between atoms: C1_1  and  C2_2 
REMARK    2  A    between atoms: C4_7  and  C5_9 
REMARK    3  A    between atoms: C5_9  and  C6_11 
REMARK    4  A    between atoms: C5_9  and  N2_12 
ROOT
ATOM      1  C2  <0> d           0.002  -0.004   0.002  0.00  0.00     0.115 A 
ATOM      2  H1  <0> d          -1.013  -0.402   0.022  0.00  0.00     0.091 H 
ATOM      3  C3  <0> d           0.757  -0.523  -1.208  0.00  0.00     0.289 A 
ATOM      4  O1  <0> d           0.490  -0.356  -2.374  0.00  0.00    -0.262 OA
ATOM      5  O2  <0> d           1.792  -1.212  -0.688  0.00  0.00    -0.260 OA
ATOM      6  C4  <0> d           1.767  -1.181   0.652  0.00  0.00     0.178 A 
ATOM      7  N1  <0> d           0.785  -0.520   1.138  0.00  0.00    -0.253 NA
ENDROOT
BRANCH   6   8
ATOM      8  C5  <0> d           2.800  -1.865   1.510  0.00  0.00     0.189 C 
ATOM      9  H2  <0> d           2.519  -1.774   2.559  0.00  0.00     0.100 H 
BRANCH   8  10
ATOM     10  C6  <0> d           2.880  -3.344   1.129  0.00  0.00    -0.040 C 
ATOM     11  H6  <0> d           3.161  -3.435   0.080  0.00  0.00     0.030 H 
ATOM     12  H7  <0> d           3.627  -3.839   1.750  0.00  0.00     0.030 H 
ATOM     13  H8  <0> d           1.909  -3.813   1.288  0.00  0.00     0.030 H 
ENDBRANCH   8  10
BRANCH   8  14
ATOM     14  N2  <0> d           4.109  -1.233   1.296  0.00  0.00     0.090 N 
ATOM     15  H9  <0> d           4.392  -1.304   0.331  0.00  0.00     0.313 HD
ATOM     16  H10 <0> d           4.100  -0.271   1.601  0.00  0.00     0.313 HD
ENDBRANCH   8  14
ENDBRANCH   6   8
BRANCH   1  17
ATOM     17  C1  <0> d          -0.019   1.526   0.010  0.00  0.00    -0.047 C 
ATOM     18  H3  <0> d           1.004   1.903   0.003  0.00  0.00     0.031 H 
ATOM     19  H4  <0> d          -0.546   1.887  -0.873  0.00  0.00     0.031 H 
ATOM     20  H5  <0> d          -0.529   1.877   0.907  0.00  0.00     0.031 H 
ENDBRANCH   1  17
TORSDOF 4
