REMARK  7 active torsions:
REMARK  status: ('A' for Active; 'I' for Inactive)
REMARK    1  A    between atoms: C1_1  and  C2_2 
REMARK    2  A    between atoms: C2_2  and  C3_3 
REMARK    3  A    between atoms: C3_3  and  C4_5 
REMARK    4  A    between atoms: C4_5  and  C5_6 
REMARK    5  A    between atoms: C5_6  and  C6_7 
REMARK    6  A    between atoms: C5_6  and  C7_8 
REMARK    7  A    between atoms: C5_6  and  C8_9 
ROOT
ATOM      1  C5  <0> d          -0.019   1.526   0.010  0.00  0.00    -0.045 C 
ENDROOT
BRANCH   1   2
ATOM      2  C4  <0> d           0.002  -0.004   0.002  0.00  0.00    -0.004 C 
ATOM      3  H6  <0> d          -0.936  -0.350   0.009  0.00  0.00     0.045 H 
ATOM      4  H7  <0> d           0.512  -0.356  -0.895  0.00  0.00     0.045 H 
BRANCH   2   5
ATOM      5  C3  <0> d           0.731  -0.503   1.223  0.00  0.00     0.127 C 
ATOM      6  O1  <0> d           1.187   0.283   2.018  0.00  0.00    -0.298 OA
BRANCH   5   7
ATOM      7  C2  <0> d           0.891  -1.984   1.452  0.00  0.00    -0.013 C 
ATOM      8  H4  <0> d          -0.011  -2.411   1.518  0.00  0.00     0.043 H 
ATOM      9  H5  <0> d           1.440  -2.423   0.619  0.00  0.00     0.043 H 
BRANCH   7  10
ATOM     10  C1  <0> d           1.662  -2.219   2.752  0.00  0.00    -0.070 C 
ATOM     11  H1  <0> d           1.778  -3.290   2.918  0.00  0.00     0.028 H 
ATOM     12  H2  <0> d           2.646  -1.754   2.680  0.00  0.00     0.028 H 
ATOM     13  H3  <0> d           1.113  -1.780   3.585  0.00  0.00     0.028 H 
ENDBRANCH   7  10
ENDBRANCH   5   7
ENDBRANCH   2   5
ENDBRANCH   1   2
BRANCH   1  14
ATOM     14  C6  <0> d           1.417   2.055  -0.000  0.00  0.00    -0.069 C 
ATOM     15  H8  <0> d           1.927   1.704  -0.897  0.00  0.00     0.028 H 
ATOM     16  H9  <0> d           1.402   3.145   0.006  0.00  0.00     0.028 H 
ATOM     17  H10 <0> d           1.944   1.694   0.883  0.00  0.00     0.028 H 
ENDBRANCH   1  14
BRANCH   1  18
ATOM     18  C7  <0> d          -0.759   2.033  -1.229  0.00  0.00    -0.069 C 
ATOM     19  H11 <0> d          -1.781   1.655  -1.221  0.00  0.00     0.028 H 
ATOM     20  H12 <0> d          -0.773   3.123  -1.223  0.00  0.00     0.028 H 
ATOM     21  H13 <0> d          -0.248   1.681  -2.126  0.00  0.00     0.028 H 
ENDBRANCH   1  18
BRANCH   1  22
ATOM     22  C8  <0> d          -0.735   2.019   1.269  0.00  0.00    -0.069 C 
ATOM     23  H14 <0> d          -0.208   1.658   2.152  0.00  0.00     0.028 H 
ATOM     24  H15 <0> d          -0.750   3.109   1.275  0.00  0.00     0.028 H 
ATOM     25  H16 <0> d          -1.757   1.642   1.277  0.00  0.00     0.028 H 
ENDBRANCH   1  22
TORSDOF 7
