REMARK  4 active torsions:
REMARK  status: ('A' for Active; 'I' for Inactive)
REMARK    1  A    between atoms: C1_1  and  O1_2 
REMARK    2  A    between atoms: O1_2  and  C2_3 
REMARK    3  A    between atoms: C2_3  and  C3_5 
REMARK    4  A    between atoms: C3_5  and  C4_6 
ROOT
ATOM      1  C2  <0> d          -0.014   1.204   0.009  0.00  0.00     0.266 C 
ATOM      2  O2  <0> d           0.002  -0.004   0.002  0.00  0.00    -0.265 OA
ENDROOT
BRANCH   1   3
ATOM      3  O1  <0> d           1.139   1.891   0.001  0.00  0.00    -0.326 OA
BRANCH   3   4
ATOM      4  C1  <0> d           2.367   1.117  -0.015  0.00  0.00     0.013 C 
ATOM      5  H1  <0> d           2.392   0.493  -0.908  0.00  0.00     0.067 H 
ATOM      6  H2  <0> d           3.223   1.792  -0.019  0.00  0.00     0.067 H 
ATOM      7  H3  <0> d           2.409   0.484   0.872  0.00  0.00     0.067 H 
ENDBRANCH   3   4
ENDBRANCH   1   3
BRANCH   1   8
ATOM      8  C3  <0> d          -1.329   1.940   0.019  0.00  0.00     0.106 C 
ATOM      9  H4  <0> d          -1.391   2.561   0.913  0.00  0.00     0.061 H 
ATOM     10  H5  <0> d          -1.400   2.570  -0.867  0.00  0.00     0.061 H 
BRANCH   8  11
ATOM     11  C4  <0> d          -2.479   0.930   0.019  0.00  0.00     0.396 C 
ATOM     12  F1  <0> d          -2.388   0.120   1.156  0.00  0.00    -0.171 F 
ATOM     13  F2  <0> d          -3.700   1.613   0.028  0.00  0.00    -0.171 F 
ATOM     14  F3  <0> d          -2.399   0.133  -1.128  0.00  0.00    -0.171 F 
ENDBRANCH   8  11
ENDBRANCH   1   8
TORSDOF 4
