REMARK  7 active torsions:
REMARK  status: ('A' for Active; 'I' for Inactive)
REMARK    1  A    between atoms: C1_1  and  C2_2 
REMARK    2  A    between atoms: C2_2  and  C3_4 
REMARK    3  A    between atoms: C2_2  and  C5_7 
REMARK    4  A    between atoms: C3_4  and  C4_5 
REMARK    5  A    between atoms: C5_7  and  C6_8 
REMARK    6  A    between atoms: C5_7  and  C7_9 
REMARK    7  A    between atoms: C5_7  and  C8_10 
ROOT
ATOM      1  C5  <0> d          -0.064   0.971   2.503  0.00  0.00    -0.048 C 
ENDROOT
BRANCH   1   2
ATOM      2  C2  <0> d          -0.729   1.579   1.267  0.00  0.00    -0.042 C 
ATOM      3  H1  <0> d          -1.776   1.277   1.232  0.00  0.00     0.041 H 
BRANCH   2   4
ATOM      4  C1  <0> d          -0.641   3.105   1.339  0.00  0.00    -0.072 C 
ATOM      5  H2  <0> d          -1.115   3.538   0.458  0.00  0.00     0.028 H 
ATOM      6  H3  <0> d          -1.151   3.457   2.235  0.00  0.00     0.028 H 
ATOM      7  H4  <0> d           0.406   3.407   1.374  0.00  0.00     0.028 H 
ENDBRANCH   2   4
BRANCH   2   8
ATOM      8  C3  <0> d          -0.013   1.086   0.008  0.00  0.00     0.019 C 
ATOM      9  H5  <0> d           0.002  -0.004   0.002  0.00  0.00     0.049 H 
ATOM     10  H6  <0> d           1.010   1.463   0.000  0.00  0.00     0.049 H 
BRANCH   8  11
ATOM     11  C4  <0> d          -0.742   1.585  -1.213  0.00  0.00     0.172 C 
ATOM     12  O1  <0> d          -1.732   2.266  -1.089  0.00  0.00    -0.648 OA
ATOM     13  O2  <0> d          -0.290   1.274  -2.438  0.00  0.00    -0.648 OA
ENDBRANCH   8  11
ENDBRANCH   2   8
ENDBRANCH   1   2
BRANCH   1  14
ATOM     14  C6  <0> d           1.405   1.396   2.553  0.00  0.00    -0.069 C 
ATOM     15  H7  <0> d           1.468   2.483   2.604  0.00  0.00     0.028 H 
ATOM     16  H8  <0> d           1.879   0.963   3.434  0.00  0.00     0.028 H 
ATOM     17  H9  <0> d           1.915   1.044   1.656  0.00  0.00     0.028 H 
ENDBRANCH   1  14
BRANCH   1  18
ATOM     18  C7  <0> d          -0.780   1.465   3.762  0.00  0.00    -0.069 C 
ATOM     19  H10 <0> d          -1.827   1.162   3.727  0.00  0.00     0.028 H 
ATOM     20  H11 <0> d          -0.306   1.032   4.643  0.00  0.00     0.028 H 
ATOM     21  H12 <0> d          -0.717   2.552   3.813  0.00  0.00     0.028 H 
ENDBRANCH   1  18
BRANCH   1  22
ATOM     22  C8  <0> d          -0.152  -0.554   2.432  0.00  0.00    -0.069 C 
ATOM     23  H13 <0> d           0.358  -0.906   1.535  0.00  0.00     0.028 H 
ATOM     24  H14 <0> d           0.322  -0.988   3.312  0.00  0.00     0.028 H 
ATOM     25  H15 <0> d          -1.198  -0.857   2.396  0.00  0.00     0.028 H 
ENDBRANCH   1  22
TORSDOF 7
