REMARK  2 active torsions:
REMARK  status: ('A' for Active; 'I' for Inactive)
REMARK    1  A    between atoms: C1_1  and  C2_2 
REMARK    2  A    between atoms: C2_2  and  C3_3 
ROOT
ATOM      1  C3  <0> d          -1.433  -0.534   0.013  0.00  0.00    -0.050 C 
ATOM      2  H1  <0> d          -1.961  -0.180   0.899  0.00  0.00     0.040 H 
ATOM      3  C4  <0> d          -2.179  -0.097  -1.269  0.00  0.00    -0.058 C 
ATOM      4  C5  <0> d          -2.564  -1.432  -1.976  0.00  0.00    -0.053 C 
ATOM      5  H2  <0> d          -3.371  -1.370  -2.705  0.00  0.00     0.040 H 
ATOM      6  C6  <0> d          -1.210  -1.999  -2.504  0.00  0.00    -0.061 C 
ATOM      7  C7  <0> d          -0.447  -2.435  -1.233  0.00  0.00    -0.061 C 
ATOM      8  C8  <0> d          -1.438  -2.092  -0.037  0.00  0.00    -0.050 C 
ATOM      9  H3  <0> d          -1.257  -2.600   0.910  0.00  0.00     0.040 H 
ATOM     10  C9  <0> d          -2.822  -2.354  -0.732  0.00  0.00    -0.058 C 
ATOM     11  H9  <0> d          -3.074   0.470  -1.014  0.00  0.00     0.034 H 
ATOM     12  H10 <0> d          -1.522   0.495  -1.907  0.00  0.00     0.034 H 
ATOM     13  H11 <0> d          -1.385  -2.855  -3.155  0.00  0.00     0.033 H 
ATOM     14  H12 <0> d          -0.655  -1.224  -3.033  0.00  0.00     0.033 H 
ATOM     15  H13 <0> d          -0.246  -3.506  -1.259  0.00  0.00     0.033 H 
ATOM     16  H14 <0> d           0.484  -1.876  -1.137  0.00  0.00     0.033 H 
ATOM     17  H15 <0> d          -3.656  -2.000  -0.127  0.00  0.00     0.034 H 
ATOM     18  H16 <0> d          -2.945  -3.399  -1.017  0.00  0.00     0.034 H 
ENDROOT
BRANCH   1  19
ATOM     19  C2  <0> d           0.002  -0.004   0.002  0.00  0.00    -0.065 C 
ATOM     20  H7  <0> d           0.466  -0.232  -0.958  0.00  0.00     0.033 H 
ATOM     21  H8  <0> d           0.570  -0.478   0.802  0.00  0.00     0.033 H 
BRANCH  19  22
ATOM     22  C1  <0> d          -0.012   1.511   0.215  0.00  0.00    -0.076 C 
ATOM     23  H4  <0> d           1.011   1.888   0.207  0.00  0.00     0.027 H 
ATOM     24  H5  <0> d          -0.580   1.985  -0.586  0.00  0.00     0.027 H 
ATOM     25  H6  <0> d          -0.476   1.739   1.174  0.00  0.00     0.027 H 
ENDBRANCH  19  22
ENDBRANCH   1  19
TORSDOF 2
