REMARK  7 active torsions:
REMARK  status: ('A' for Active; 'I' for Inactive)
REMARK    1  A    between atoms: C1_1  and  C2_2 
REMARK    2  A    between atoms: C2_2  and  C3_3 
REMARK    3  A    between atoms: C2_2  and  O1_4 
REMARK    4  A    between atoms: O1_4  and  C4_5 
REMARK    5  A    between atoms: C4_5  and  C5_6 
REMARK    6  A    between atoms: C5_6  and  C6_7 
REMARK    7  A    between atoms: C6_7  and  O2_8 
ROOT
ATOM      1  O1  <0> d           2.402   5.149   0.007  0.00  0.00    -0.387 OA
ENDROOT
BRANCH   1   2
ATOM      2  C2  <0> d           3.648   5.849  -0.001  0.00  0.00     0.031 C 
ATOM      3  H4  <0> d           4.395   5.253  -0.526  0.00  0.00     0.082 H 
BRANCH   2   4
ATOM      4  C1  <0> d           3.474   7.192  -0.714  0.00  0.00    -0.052 C 
ATOM      5  H1  <0> d           2.727   7.787  -0.190  0.00  0.00     0.030 H 
ATOM      6  H2  <0> d           4.425   7.725  -0.720  0.00  0.00     0.030 H 
ATOM      7  H3  <0> d           3.148   7.019  -1.739  0.00  0.00     0.030 H 
ENDBRANCH   2   4
BRANCH   2   8
ATOM      8  C3  <0> d           4.106   6.091   1.438  0.00  0.00    -0.052 C 
ATOM      9  H5  <0> d           4.230   5.134   1.946  0.00  0.00     0.030 H 
ATOM     10  H6  <0> d           5.057   6.624   1.432  0.00  0.00     0.030 H 
ATOM     11  H7  <0> d           3.359   6.686   1.962  0.00  0.00     0.030 H 
ENDBRANCH   2   8
ENDBRANCH   1   2
BRANCH   1  12
ATOM     12  C4  <0> d           2.534   3.726  -0.002  0.00  0.00     0.022 C 
ATOM     13  H8  <0> d           3.088   3.407   0.881  0.00  0.00     0.074 H 
ATOM     14  H9  <0> d           3.071   3.417  -0.899  0.00  0.00     0.074 H 
BRANCH  12  15
ATOM     15  C5  <0> d           1.145   3.085   0.008  0.00  0.00    -0.026 C 
ATOM     16  H10 <0> d           0.591   3.404  -0.875  0.00  0.00     0.039 H 
ATOM     17  H11 <0> d           0.608   3.395   0.904  0.00  0.00     0.039 H 
BRANCH  15  18
ATOM     18  C6  <0> d           1.286   1.562  -0.002  0.00  0.00     0.019 C 
ATOM     19  H12 <0> d           1.840   1.243   0.881  0.00  0.00     0.074 H 
ATOM     20  H13 <0> d           1.823   1.252  -0.899  0.00  0.00     0.074 H 
BRANCH  18  21
ATOM     21  O2  <0> d          -0.011   0.963   0.007  0.00  0.00    -0.401 OA
ATOM     22  H14 <0> d           0.002  -0.004   0.002  0.00  0.00     0.209 HD
ENDBRANCH  18  21
ENDBRANCH  15  18
ENDBRANCH  12  15
ENDBRANCH   1  12
TORSDOF 7
