REMARK  3 active torsions:
REMARK  status: ('A' for Active; 'I' for Inactive)
REMARK    1  A    between atoms: C1_1  and  N1_2 
REMARK    2  A    between atoms: N1_2  and  C2_3 
REMARK    3  A    between atoms: N1_2  and  C3_4 
ROOT
ATOM      1  C3  <0> d          -0.130   4.148   0.025  0.00  0.00     0.124 A 
ATOM      2  C4  <0> d           1.116   3.523   0.010  0.00  0.00    -0.037 A 
ATOM      3  C5  <0> d           1.182   2.156   0.002  0.00  0.00    -0.058 A 
ATOM      4  C6  <0> d          -0.017   1.428   0.010  0.00  0.00     0.062 A 
ATOM      5  C7  <0> d          -1.230   2.119   0.019  0.00  0.00     0.024 A 
ATOM      6  N2  <0> d          -1.248   3.436   0.032  0.00  0.00    -0.242 NA
ATOM      7  C8  <0> d           0.002  -0.004   0.002  0.00  0.00     0.101 C 
ATOM      8  N3  <0> d           0.018  -1.140  -0.004  0.00  0.00    -0.191 NA
ATOM      9  H7  <0> d           2.021   4.113   0.004  0.00  0.00     0.089 H 
ATOM     10  H8  <0> d           2.136   1.649  -0.009  0.00  0.00     0.086 H 
ATOM     11  H9  <0> d          -2.160   1.570   0.021  0.00  0.00     0.117 H 
ENDROOT
BRANCH   1  12
ATOM     12  N1  <0> d          -0.200   5.532   0.032  0.00  0.00    -0.374 N 
BRANCH  12  13
ATOM     13  C1  <0> d           1.024   6.328  -0.086  0.00  0.00    -0.018 C 
ATOM     14  H1  <0> d           1.891   5.657  -0.170  0.00  0.00     0.056 H 
ATOM     15  H2  <0> d           1.136   6.962   0.806  0.00  0.00     0.056 H 
ATOM     16  H3  <0> d           0.963   6.963  -0.982  0.00  0.00     0.056 H 
ENDBRANCH  12  13
BRANCH  12  17
ATOM     17  C2  <0> d          -1.499   6.198   0.158  0.00  0.00    -0.018 C 
ATOM     18  H4  <0> d          -2.293   5.442   0.235  0.00  0.00     0.056 H 
ATOM     19  H5  <0> d          -1.675   6.827  -0.727  0.00  0.00     0.056 H 
ATOM     20  H6  <0> d          -1.502   6.826   1.061  0.00  0.00     0.056 H 
ENDBRANCH  12  17
ENDBRANCH   1  12
TORSDOF 3
