REMARK  9 active torsions:
REMARK  status: ('A' for Active; 'I' for Inactive)
REMARK    1  A    between atoms: C1_1  and  C2_2 
REMARK    2  A    between atoms: C1_1  and  C7_9 
REMARK    3  A    between atoms: C2_2  and  C3_3 
REMARK    4  A    between atoms: C3_3  and  C4_4 
REMARK    5  A    between atoms: C3_3  and  O2_8 
REMARK    6  A    between atoms: C4_4  and  C5_5 
REMARK    7  A    between atoms: C5_5  and  C6_6 
REMARK    8  A    between atoms: C6_6  and  O1_7 
REMARK    9  A    between atoms: C7_9  and  O3_10 
ROOT
ATOM      1  C3  <0> d           2.393   5.250   0.007  0.00  0.00     0.035 C 
ATOM      2  H5  <0> d           1.780   5.553   0.857  0.00  0.00     0.082 H 
ENDROOT
BRANCH   1   3
ATOM      3  C2  <0> d           3.777   5.890   0.123  0.00  0.00    -0.039 C 
ATOM      4  H3  <0> d           4.288   5.495   1.002  0.00  0.00     0.036 H 
ATOM      5  H4  <0> d           4.360   5.660  -0.769  0.00  0.00     0.036 H 
BRANCH   3   6
ATOM      6  C1  <0> d           3.628   7.407   0.258  0.00  0.00    -0.043 C 
ATOM      7  H1  <0> d           3.118   7.801  -0.620  0.00  0.00     0.036 H 
ATOM      8  H2  <0> d           3.046   7.637   1.151  0.00  0.00     0.036 H 
BRANCH   6   9
ATOM      9  C7  <0> d           5.013   8.047   0.374  0.00  0.00     0.017 C 
ATOM     10  H14 <0> d           5.524   7.652   1.253  0.00  0.00     0.073 H 
ATOM     11  H15 <0> d           5.596   7.817  -0.518  0.00  0.00     0.073 H 
BRANCH   9  12
ATOM     12  O3  <0> d           4.874   9.463   0.500  0.00  0.00    -0.401 OA
ATOM     13  H16 <0> d           5.714   9.936   0.579  0.00  0.00     0.209 HD
ENDBRANCH   9  12
ENDBRANCH   6   9
ENDBRANCH   3   6
ENDBRANCH   1   3
BRANCH   1  14
ATOM     14  C4  <0> d           2.534   3.726  -0.002  0.00  0.00    -0.039 C 
ATOM     15  H6  <0> d           3.088   3.407   0.881  0.00  0.00     0.036 H 
ATOM     16  H7  <0> d           3.071   3.417  -0.899  0.00  0.00     0.036 H 
BRANCH  14  17
ATOM     17  C5  <0> d           1.145   3.085   0.008  0.00  0.00    -0.043 C 
ATOM     18  H8  <0> d           0.591   3.404  -0.875  0.00  0.00     0.036 H 
ATOM     19  H9  <0> d           0.608   3.395   0.904  0.00  0.00     0.036 H 
BRANCH  17  20
ATOM     20  C6  <0> d           1.286   1.562  -0.002  0.00  0.00     0.017 C 
ATOM     21  H10 <0> d           1.840   1.243   0.881  0.00  0.00     0.073 H 
ATOM     22  H11 <0> d           1.823   1.252  -0.899  0.00  0.00     0.073 H 
BRANCH  20  23
ATOM     23  O1  <0> d          -0.011   0.963   0.007  0.00  0.00    -0.401 OA
ATOM     24  H12 <0> d           0.002  -0.004   0.002  0.00  0.00     0.209 HD
ENDBRANCH  20  23
ENDBRANCH  17  20
ENDBRANCH  14  17
ENDBRANCH   1  14
BRANCH   1  25
ATOM     25  O2  <0> d           1.770   5.678  -1.206  0.00  0.00    -0.396 OA
ATOM     26  H13 <0> d           2.261   5.442  -2.004  0.00  0.00     0.210 HD
ENDBRANCH   1  25
TORSDOF 9
