REMARK  2 active torsions:
REMARK  status: ('A' for Active; 'I' for Inactive)
REMARK    1  A    between atoms: C1_1  and  N1_2 
REMARK    2  A    between atoms: N2_7  and  C6_10 
ROOT
ATOM      1  N1  <0> d           1.147   3.492   0.009  0.00  0.00    -0.314 N 
ATOM      2  C2  <0> d          -0.027   4.195   0.024  0.00  0.00    -0.011 A 
ATOM      3  C3  <0> d          -1.203   3.532   0.033  0.00  0.00    -0.002 A 
ATOM      4  C4  <0> d          -1.196   2.116   0.019  0.00  0.00     0.252 A 
ATOM      5  O1  <0> d          -2.244   1.496   0.021  0.00  0.00    -0.268 OA
ATOM      6  N2  <0> d          -0.018   1.461   0.010  0.00  0.00    -0.271 N 
ATOM      7  C5  <0> d           1.140   2.147   0.003  0.00  0.00     0.330 A 
ATOM      8  O2  <0> d           2.195   1.542  -0.011  0.00  0.00    -0.246 OA
ATOM      9  H4  <0> d          -0.013   5.275   0.029  0.00  0.00     0.112 H 
ATOM     10  H5  <0> d          -2.137   4.074   0.044  0.00  0.00     0.094 H 
ENDROOT
BRANCH   1  11
ATOM     11  C1  <0> d           2.423   4.212   0.001  0.00  0.00    -0.010 C 
ATOM     12  H1  <0> d           2.730   4.395  -1.029  0.00  0.00     0.057 H 
ATOM     13  H2  <0> d           2.308   5.163   0.521  0.00  0.00     0.057 H 
ATOM     14  H3  <0> d           3.181   3.612   0.505  0.00  0.00     0.057 H 
ENDBRANCH   1  11
BRANCH   6  15
ATOM     15  C6  <0> d           0.002  -0.004   0.002  0.00  0.00    -0.007 C 
ATOM     16  H6  <0> d           0.017  -0.373   1.028  0.00  0.00     0.057 H 
ATOM     17  H7  <0> d          -0.888  -0.377  -0.505  0.00  0.00     0.057 H 
ATOM     18  H8  <0> d           0.892  -0.352  -0.522  0.00  0.00     0.057 H 
ENDBRANCH   6  15
TORSDOF 2
