REMARK  0 active torsions:
REMARK  status: ('A' for Active; 'I' for Inactive)
ROOT
ATOM      1  C1  <0> d           1.149   3.520   0.010  0.00  0.00    -0.079 A 
ATOM      2  C2  <0> d          -0.087   4.151   0.025  0.00  0.00    -0.066 A 
ATOM      3  C3  <0> d          -1.240   3.385   0.032  0.00  0.00     0.004 A 
ATOM      4  N1  <0> d          -1.179   2.071   0.019  0.00  0.00    -0.250 NA
ATOM      5  C4  <0> d          -0.017   1.428   0.010  0.00  0.00     0.136 A 
ATOM      6  C5  <0> d           1.184   2.136   0.002  0.00  0.00    -0.045 A 
ATOM      7  C6  <0> d           0.002  -0.004   0.002  0.00  0.00     0.119 C 
ATOM      8  N2  <0> d           0.018  -1.140  -0.004  0.00  0.00    -0.190 NA
ATOM      9  H1  <0> d           2.062   4.096   0.005  0.00  0.00     0.083 H 
ATOM     10  H2  <0> d          -0.148   5.229   0.031  0.00  0.00     0.085 H 
ATOM     11  H3  <0> d          -2.203   3.873   0.043  0.00  0.00     0.114 H 
ATOM     12  H4  <0> d           2.128   1.612  -0.010  0.00  0.00     0.088 H 
ENDROOT
TORSDOF 0
