REMARK  4 active torsions:
REMARK  status: ('A' for Active; 'I' for Inactive)
REMARK    1  A    between atoms: C2_2  and  C3_3 
REMARK    2  A    between atoms: C3_3  and  C4_5 
REMARK    3  A    between atoms: C3_3  and  O1_13 
REMARK    4  A    between atoms: C5_6  and  C6_7 
ROOT
ATOM      1  C1  <0> d           0.018  -1.178  -0.004  0.00  0.00    -0.151 C 
ATOM      2  C2  <0> d           0.002  -0.004   0.002  0.00  0.00    -0.082 C 
ATOM      3  H2  <0> d           0.032  -2.228  -0.010  0.00  0.00     0.166 H 
ENDROOT
BRANCH   2   4
ATOM      4  C3  <0> d          -0.018   1.468   0.010  0.00  0.00     0.110 C 
ATOM      5  H1  <0> d          -0.528   1.819   0.907  0.00  0.00     0.109 H 
BRANCH   4   6
ATOM      6  C4  <0> d          -0.747   1.967  -1.211  0.00  0.00    -0.064 C 
ATOM      7  C5  <0> d          -1.834   2.714  -1.075  0.00  0.00    -0.073 C 
ATOM      8  H4  <0> d          -2.197   2.964  -0.089  0.00  0.00     0.084 H 
ATOM      9  H3  <0> d          -0.384   1.716  -2.197  0.00  0.00     0.082 H 
BRANCH   7  10
ATOM     10  C6  <0> d          -2.549   3.203  -2.272  0.00  0.00    -0.036 A 
ATOM     11  C11 <0> d          -3.693   3.990  -2.132  0.00  0.00    -0.073 A 
ATOM     12  C10 <0> d          -4.356   4.443  -3.254  0.00  0.00    -0.082 A 
ATOM     13  H9  <0> d          -4.059   4.242  -1.148  0.00  0.00     0.084 H 
ATOM     14  C9  <0> d          -3.888   4.121  -4.516  0.00  0.00    -0.083 A 
ATOM     15  H8  <0> d          -5.241   5.052  -3.147  0.00  0.00     0.083 H 
ATOM     16  C8  <0> d          -2.754   3.341  -4.661  0.00  0.00    -0.082 A 
ATOM     17  H7  <0> d          -4.410   4.479  -5.391  0.00  0.00     0.083 H 
ATOM     18  C7  <0> d          -2.079   2.886  -3.547  0.00  0.00    -0.073 A 
ATOM     19  H6  <0> d          -2.394   3.093  -5.648  0.00  0.00     0.083 H 
ATOM     20  H5  <0> d          -1.191   2.282  -3.662  0.00  0.00     0.084 H 
ENDBRANCH   7  10
ENDBRANCH   4   6
BRANCH   4  21
ATOM     21  O1  <0> d           1.323   1.962  -0.000  0.00  0.00    -0.380 OA
ATOM     22  H10 <0> d           1.837   1.688  -0.771  0.00  0.00     0.211 HD
ENDBRANCH   4  21
ENDBRANCH   2   4
TORSDOF 4
