REMARK  3 active torsions:
REMARK  status: ('A' for Active; 'I' for Inactive)
REMARK    1  A    between atoms: C1_1  and  C2_2 
REMARK    2  A    between atoms: C2_2  and  C3_3 
REMARK    3  A    between atoms: C6_6  and  C8_8 
ROOT
ATOM      1  C3  <0> d           0.731  -0.503   1.223  0.00  0.00    -0.062 A 
ATOM      2  C4  <0> d           0.144  -0.864   2.358  0.00  0.00    -0.093 A 
ATOM      3  C5  <0> d           1.245  -1.294   3.302  0.00  0.00    -0.029 A 
ATOM      4  C6  <0> d           2.527  -1.116   2.519  0.00  0.00    -0.080 A 
ATOM      5  C7  <0> d           2.184  -0.663   1.319  0.00  0.00    -0.075 A 
ATOM      6  H6  <0> d          -0.915  -0.853   2.567  0.00  0.00     0.078 H 
ATOM      7  H7  <0> d           1.252  -0.660   4.188  0.00  0.00     0.045 H 
ATOM      8  H8  <0> d           1.115  -2.339   3.583  0.00  0.00     0.045 H 
ATOM      9  H9  <0> d           2.881  -0.439   0.525  0.00  0.00     0.084 H 
ENDROOT
BRANCH   1  10
ATOM     10  C2  <0> d           0.002  -0.004   0.002  0.00  0.00    -0.045 C 
ATOM     11  H4  <0> d          -1.020  -0.381   0.010  0.00  0.00     0.039 H 
ATOM     12  H5  <0> d           0.512  -0.356  -0.895  0.00  0.00     0.039 H 
BRANCH  10  13
ATOM     13  C1  <0> d          -0.019   1.526   0.010  0.00  0.00    -0.073 C 
ATOM     14  H1  <0> d           1.004   1.903   0.003  0.00  0.00     0.028 H 
ATOM     15  H2  <0> d          -0.546   1.887  -0.873  0.00  0.00     0.028 H 
ATOM     16  H3  <0> d          -0.529   1.877   0.907  0.00  0.00     0.028 H 
ENDBRANCH  10  13
ENDBRANCH   1  10
BRANCH   4  17
ATOM     17  C8  <0> d           3.924  -1.405   3.004  0.00  0.00    -0.054 C 
ATOM     18  H10 <0> d           4.182  -2.439   2.774  0.00  0.00     0.033 H 
ATOM     19  H11 <0> d           4.627  -0.736   2.508  0.00  0.00     0.033 H 
ATOM     20  H12 <0> d           3.973  -1.250   4.082  0.00  0.00     0.033 H 
ENDBRANCH   4  17
TORSDOF 3
