REMARK  2 active torsions:
REMARK  status: ('A' for Active; 'I' for Inactive)
REMARK    1  A    between atoms: C1_1  and  C2_2 
REMARK    2  A    between atoms: C3_4  and  C7_11 
ROOT
ATOM      1  C2  <0> d           0.002  -0.004   0.002  0.00  0.00     0.057 C 
ATOM      2  H1  <0> d          -1.020  -0.382   0.010  0.00  0.00     0.085 H 
ATOM      3  C3  <0> d           0.720  -0.499  -1.256  0.00  0.00     0.056 C 
ATOM      4  H2  <0> d           0.712  -1.588  -1.276  0.00  0.00     0.060 H 
ATOM      5  C4  <0> d           2.169   0.001  -1.244  0.00  0.00    -0.042 C 
ATOM      6  C5  <0> d           2.867  -0.535   0.012  0.00  0.00     0.017 C 
ATOM      7  C6  <0> d           2.014  -0.192   1.214  0.00  0.00     0.259 C 
ATOM      8  O1  <0> d           2.498   0.326   2.192  0.00  0.00    -0.265 OA
ATOM      9  O2  <0> d           0.696  -0.479   1.161  0.00  0.00    -0.316 OA
ATOM     10  H6  <0> d           2.687  -0.360  -2.132  0.00  0.00     0.035 H 
ATOM     11  H7  <0> d           2.179   1.091  -1.230  0.00  0.00     0.035 H 
ATOM     12  H8  <0> d           2.978  -1.617  -0.062  0.00  0.00     0.048 H 
ATOM     13  H9  <0> d           3.848  -0.071   0.113  0.00  0.00     0.048 H 
ENDROOT
BRANCH   1  14
ATOM     14  C1  <0> d          -0.019   1.526   0.010  0.00  0.00    -0.051 C 
ATOM     15  H3  <0> d           1.004   1.903   0.003  0.00  0.00     0.030 H 
ATOM     16  H4  <0> d          -0.546   1.887  -0.873  0.00  0.00     0.030 H 
ATOM     17  H5  <0> d          -0.529   1.877   0.907  0.00  0.00     0.030 H 
ENDBRANCH   1  14
BRANCH   3  18
ATOM     18  C7  <0> d           0.016   0.032  -2.478  0.00  0.00     0.179 C 
ATOM     19  O3  <0> d           0.646   0.247  -3.500  0.00  0.00    -0.648 OA
ATOM     20  O4  <0> d          -1.184   0.245  -2.446  0.00  0.00    -0.648 OA
ENDBRANCH   3  18
TORSDOF 2
