REMARK  0 active torsions:
REMARK  status: ('A' for Active; 'I' for Inactive)
ROOT
ATOM      1  C1  <0> d          -0.013   1.076   0.008  0.00  0.00    -0.080 A 
ATOM      2  C2  <0> d          -1.216   1.756   0.017  0.00  0.00    -0.080 A 
ATOM      3  C3  <0> d          -1.217   3.131   0.030  0.00  0.00    -0.048 A 
ATOM      4  C4  <0> d          -0.010   3.857   0.023  0.00  0.00     0.102 A 
ATOM      5  C5  <0> d           1.164   3.193   0.009  0.00  0.00     0.102 A 
ATOM      6  C6  <0> d           1.166   1.785   0.001  0.00  0.00    -0.048 A 
ATOM      7  O1  <0> d           2.440   3.695   0.001  0.00  0.00    -0.348 OA
ATOM      8  C7  <0> d           2.743   4.831  -0.774  0.00  0.00     0.028 C 
ATOM      9  C8  <0> d           2.010   6.067  -0.325  0.00  0.00    -0.024 C 
ATOM     10  C9  <0> d           0.566   6.061  -0.748  0.00  0.00     0.028 C 
ATOM     11  O2  <0> d          -0.238   5.209   0.033  0.00  0.00    -0.348 OA
ATOM     12  H1  <0> d           0.002  -0.004   0.002  0.00  0.00     0.083 H 
ATOM     13  H2  <0> d          -2.149   1.212   0.019  0.00  0.00     0.083 H 
ATOM     14  H3  <0> d          -2.157   3.663   0.041  0.00  0.00     0.087 H 
ATOM     15  H4  <0> d           2.106   1.254  -0.011  0.00  0.00     0.087 H 
ATOM     16  H5  <0> d           2.481   4.627  -1.812  0.00  0.00     0.075 H 
ATOM     17  H6  <0> d           3.815   5.019  -0.716  0.00  0.00     0.075 H 
ATOM     18  H7  <0> d           2.499   6.942  -0.753  0.00  0.00     0.039 H 
ATOM     19  H8  <0> d           2.060   6.131   0.762  0.00  0.00     0.039 H 
ATOM     20  H9  <0> d           0.506   5.743  -1.788  0.00  0.00     0.075 H 
ATOM     21  H10 <0> d           0.175   7.076  -0.672  0.00  0.00     0.075 H 
ENDROOT
TORSDOF 0
