REMARK  4 active torsions:
REMARK  status: ('A' for Active; 'I' for Inactive)
REMARK    1  A    between atoms: C1_1  and  C2_2 
REMARK    2  A    between atoms: C3_3  and  C8_10 
REMARK    3  A    between atoms: C4_4  and  C7_9 
REMARK    4  A    between atoms: C5_7  and  C6_8 
ROOT
ATOM      1  C2  <0> d          -0.744   3.037   0.025  0.00  0.00    -0.032 A 
ATOM      2  C3  <0> d           0.665   3.056   0.012  0.00  0.00    -0.032 A 
ATOM      3  C4  <0> d           1.086   1.775   0.001  0.00  0.00     0.012 A 
ATOM      4  N1  <0> d          -0.011   0.966   0.007  0.00  0.00    -0.363 N 
ATOM      5  H1  <0> d           0.002  -0.004   0.002  0.00  0.00     0.165 HD
ATOM      6  C5  <0> d          -1.130   1.745   0.016  0.00  0.00     0.012 A 
ENDROOT
BRANCH   1   7
ATOM      7  C1  <0> d          -1.652   4.239   0.041  0.00  0.00    -0.049 C 
ATOM      8  H2  <0> d          -1.881   4.535  -0.983  0.00  0.00     0.033 H 
ATOM      9  H3  <0> d          -2.576   3.990   0.562  0.00  0.00     0.033 H 
ATOM     10  H4  <0> d          -1.156   5.063   0.554  0.00  0.00     0.033 H 
ENDBRANCH   1   7
BRANCH   6  11
ATOM     11  C6  <0> d          -2.553   1.248   0.019  0.00  0.00    -0.037 C 
ATOM     12  H5  <0> d          -2.892   1.123   1.047  0.00  0.00     0.035 H 
ATOM     13  H6  <0> d          -3.191   1.972  -0.489  0.00  0.00     0.035 H 
ATOM     14  H7  <0> d          -2.604   0.291  -0.500  0.00  0.00     0.035 H 
ENDBRANCH   6  11
BRANCH   2  15
ATOM     15  C8  <0> d           1.540   4.283   0.010  0.00  0.00    -0.049 C 
ATOM     16  H11 <0> d           1.742   4.584  -1.018  0.00  0.00     0.033 H 
ATOM     17  H12 <0> d           1.032   5.093   0.533  0.00  0.00     0.033 H 
ATOM     18  H13 <0> d           2.481   4.059   0.514  0.00  0.00     0.033 H 
ENDBRANCH   2  15
BRANCH   3  19
ATOM     19  C7  <0> d           2.522   1.317  -0.016  0.00  0.00    -0.037 C 
ATOM     20  H8  <0> d           2.857   1.212  -1.047  0.00  0.00     0.035 H 
ATOM     21  H9  <0> d           3.143   2.052   0.496  0.00  0.00     0.035 H 
ATOM     22  H10 <0> d           2.603   0.356   0.492  0.00  0.00     0.035 H 
ENDBRANCH   3  19
TORSDOF 4
