REMARK  3 active torsions:
REMARK  status: ('A' for Active; 'I' for Inactive)
REMARK    1  A    between atoms: C1_1  and  N1_2 
REMARK    2  A    between atoms: N1_2  and  C2_3 
REMARK       I    between atoms: N1_2  and  C3_4 
REMARK    3  A    between atoms: C3_4  and  C4_6 
ROOT
ATOM      1  C4  <0> d           1.280   1.980   0.001  0.00  0.00     0.024 C 
ATOM      2  C5  <0> d           1.702   2.461  -1.398  0.00  0.00    -0.054 C 
ATOM      3  C6  <0> d           3.142   2.092  -1.004  0.00  0.00    -0.064 C 
ATOM      4  C7  <0> d           2.530   1.085  -0.016  0.00  0.00    -0.054 C 
ATOM      5  H7  <0> d           1.313   2.761   0.760  0.00  0.00     0.054 H 
ATOM      6  H8  <0> d           1.301   1.851  -2.208  0.00  0.00     0.034 H 
ATOM      7  H9  <0> d           1.553   3.529  -1.556  0.00  0.00     0.034 H 
ATOM      8  H10 <0> d           3.684   2.904  -0.520  0.00  0.00     0.033 H 
ATOM      9  H11 <0> d           3.709   1.624  -1.810  0.00  0.00     0.033 H 
ATOM     10  H12 <0> d           3.050   1.042   0.941  0.00  0.00     0.034 H 
ATOM     11  H13 <0> d           2.356   0.099  -0.448  0.00  0.00     0.034 H 
ENDROOT
BRANCH   1  12
ATOM     12  C3  <0> d          -0.014   1.209   0.009  0.00  0.00     0.223 C 
ATOM     13  N1  <0> d          -1.191   1.867   0.018  0.00  0.00    -0.360 N 
ATOM     14  O1  <0> d           0.002  -0.004   0.002  0.00  0.00    -0.273 OA
BRANCH  13  15
ATOM     15  C1  <0> d          -2.449   1.117   0.020  0.00  0.00    -0.017 C 
ATOM     16  H1  <0> d          -2.756   0.925   1.048  0.00  0.00     0.056 H 
ATOM     17  H2  <0> d          -3.219   1.698  -0.487  0.00  0.00     0.056 H 
ATOM     18  H3  <0> d          -2.308   0.169  -0.500  0.00  0.00     0.056 H 
ENDBRANCH  13  15
BRANCH  13  19
ATOM     19  C2  <0> d          -1.210   3.331   0.026  0.00  0.00    -0.017 C 
ATOM     20  H4  <0> d          -0.188   3.709   0.023  0.00  0.00     0.056 H 
ATOM     21  H5  <0> d          -1.733   3.693  -0.860  0.00  0.00     0.056 H 
ATOM     22  H6  <0> d          -1.725   3.683   0.920  0.00  0.00     0.056 H 
ENDBRANCH  13  19
ENDBRANCH   1  12
TORSDOF 3
