REMARK  1 active torsions:
REMARK  status: ('A' for Active; 'I' for Inactive)
REMARK    1  A    between atoms: C1_1  and  C2_2 
ROOT
ATOM      1  C2  <0> d          -1.342   5.916  -0.253  0.00  0.00     0.027 C 
ATOM      2  H1  <0> d          -1.529   5.900  -1.327  0.00  0.00     0.075 H 
ATOM      3  C3  <0> d          -2.450   5.146   0.480  0.00  0.00     0.044 C 
ATOM      4  O1  <0> d          -2.437   3.786   0.037  0.00  0.00    -0.347 OA
ATOM      5  C4  <0> d          -1.244   3.134   0.030  0.00  0.00     0.095 A 
ATOM      6  C5  <0> d          -1.221   1.748   0.017  0.00  0.00    -0.049 A 
ATOM      7  C6  <0> d          -0.013   1.076   0.008  0.00  0.00    -0.080 A 
ATOM      8  C7  <0> d           1.177   1.780   0.000  0.00  0.00    -0.081 A 
ATOM      9  C8  <0> d           1.163   3.163   0.010  0.00  0.00    -0.055 A 
ATOM     10  C9  <0> d          -0.045   3.841   0.026  0.00  0.00     0.062 A 
ATOM     11  N1  <0> d          -0.064   5.245   0.042  0.00  0.00    -0.381 N 
ATOM     12  H5  <0> d          -3.417   5.594   0.254  0.00  0.00     0.078 H 
ATOM     13  H6  <0> d          -2.270   5.181   1.554  0.00  0.00     0.078 H 
ATOM     14  H7  <0> d          -2.147   1.192   0.019  0.00  0.00     0.087 H 
ATOM     15  H8  <0> d           0.002  -0.004   0.002  0.00  0.00     0.083 H 
ATOM     16  H9  <0> d           2.118   1.250  -0.013  0.00  0.00     0.083 H 
ATOM     17  H10 <0> d           2.092   3.713   0.005  0.00  0.00     0.087 H 
ATOM     18  H11 <0> d           0.736   5.755   0.240  0.00  0.00     0.160 HD
ENDROOT
BRANCH   1  19
ATOM     19  C1  <0> d          -1.298   7.362   0.245  0.00  0.00    -0.055 C 
ATOM     20  H2  <0> d          -1.095   7.371   1.316  0.00  0.00     0.030 H 
ATOM     21  H3  <0> d          -0.510   7.902  -0.278  0.00  0.00     0.030 H 
ATOM     22  H4  <0> d          -2.258   7.841   0.053  0.00  0.00     0.030 H 
ENDBRANCH   1  19
TORSDOF 1
