REMARK  2 active torsions:
REMARK  status: ('A' for Active; 'I' for Inactive)
REMARK    1  A    between atoms: C2_2  and  S1_3 
REMARK    2  A    between atoms: S1_3  and  C3_4 
ROOT
ATOM      1  C3  <0> d          -3.830   2.153   0.032  0.00  0.00     0.192 A 
ATOM      2  N1  <0> d          -3.376   3.398   0.042  0.00  0.00    -0.235 NA
ATOM      3  C4  <0> d          -4.213   4.423   0.047  0.00  0.00     0.006 A 
ATOM      4  C5  <0> d          -5.578   4.180   0.052  0.00  0.00    -0.049 A 
ATOM      5  C6  <0> d          -6.018   2.866   0.047  0.00  0.00     0.006 A 
ATOM      6  N2  <0> d          -5.128   1.887   0.037  0.00  0.00    -0.235 NA
ATOM      7  H4  <0> d          -3.838   5.435   0.051  0.00  0.00     0.114 H 
ATOM      8  H5  <0> d          -6.284   4.998   0.060  0.00  0.00     0.087 H 
ATOM      9  H6  <0> d          -7.075   2.643   0.050  0.00  0.00     0.114 H 
ENDROOT
BRANCH   1  10
ATOM     10  S1  <0> d          -2.679   0.819   0.019  0.00  0.00    -0.063 SA
BRANCH  10  11
ATOM     11  C2  <0> d          -1.165   1.720   0.017  0.00  0.00    -0.050 C 
ATOM     12  C1  <0> d          -0.013   1.076   0.008  0.00  0.00    -0.115 C 
ATOM     13  H1  <0> d           0.002  -0.004   0.002  0.00  0.00     0.067 H 
ATOM     14  H2  <0> d           0.915   1.629   0.002  0.00  0.00     0.067 H 
ATOM     15  H3  <0> d          -1.180   2.800   0.023  0.00  0.00     0.093 H 
ENDBRANCH  10  11
ENDBRANCH   1  10
TORSDOF 2
