REMARK  2 active torsions:
REMARK  status: ('A' for Active; 'I' for Inactive)
REMARK    1  A    between atoms: C2_2  and  O2_9 
REMARK    2  A    between atoms: C4_6  and  O1_8 
ROOT
ATOM      1  C1  <0> d          -0.018   1.460   0.010  0.00  0.00     0.021 C 
ATOM      2  C2  <0> d           1.424   1.980  -0.001  0.00  0.00     0.066 C 
ATOM      3  H1  <0> d           1.907   1.703  -0.938  0.00  0.00     0.087 H 
ATOM      4  C3  <0> d           2.176   1.346   1.175  0.00  0.00     0.021 C 
ATOM      5  N1  <0> d           2.054  -0.110   1.092  0.00  0.00    -0.354 N 
ATOM      6  C4  <0> d           1.005  -0.685   0.528  0.00  0.00     0.212 C 
ATOM      7  N2  <0> d           0.002  -0.004   0.002  0.00  0.00    -0.354 N 
ATOM      8  H2  <0> d          -0.526   1.812   0.908  0.00  0.00     0.068 H 
ATOM      9  H3  <0> d          -0.543   1.822  -0.874  0.00  0.00     0.068 H 
ATOM     10  H4  <0> d           3.228   1.627   1.129  0.00  0.00     0.068 H 
ATOM     11  H5  <0> d           1.745   1.695   2.114  0.00  0.00     0.068 H 
ATOM     12  H6  <0> d          -0.738  -0.485  -0.399  0.00  0.00     0.163 HD
ATOM     13  H9  <0> d           2.759  -0.666   1.458  0.00  0.00     0.163 HD
ENDROOT
BRANCH   2  14
ATOM     14  O2  <0> d           1.423   3.402   0.138  0.00  0.00    -0.392 OA
ATOM     15  H8  <0> d           2.306   3.798   0.139  0.00  0.00     0.210 HD
ENDBRANCH   2  14
BRANCH   6  16
ATOM     16  O1  <0> d           0.956  -2.032   0.489  0.00  0.00    -0.333 OA
ATOM     17  H7  <0> d           0.163  -2.385   0.063  0.00  0.00     0.220 HD
ENDBRANCH   6  16
TORSDOF 2
