REMARK  1 active torsions:
REMARK  status: ('A' for Active; 'I' for Inactive)
REMARK    1  A    between atoms: C1_1  and  C2_2 
ROOT
ATOM      1  C2  <0> d          -0.022   1.799   0.012  0.00  0.00     0.197 C 
ATOM      2  C3  <0> d          -0.734   2.286  -1.181  0.00  0.00     0.101 C 
ATOM      3  N1  <0> d          -1.284   2.663  -2.101  0.00  0.00    -0.194 NA
ATOM      4 Cl1  <0> d           0.002  -0.004   0.002  0.00  0.00    -0.085 Cl
ATOM      5 Cl2  <0> d           1.669   2.423  -0.001  0.00  0.00    -0.085 Cl
ENDROOT
BRANCH   1   6
ATOM      6  C1  <0> d          -0.739   2.292   1.271  0.00  0.00    -0.032 C 
ATOM      7  H1  <0> d          -0.211   1.931   2.154  0.00  0.00     0.033 H 
ATOM      8  H2  <0> d          -0.753   3.382   1.277  0.00  0.00     0.033 H 
ATOM      9  H3  <0> d          -1.761   1.915   1.278  0.00  0.00     0.033 H 
ENDBRANCH   1   6
TORSDOF 1
