REMARK  2 active torsions:
REMARK  status: ('A' for Active; 'I' for Inactive)
REMARK    1  A    between atoms: C1_1  and  N1_2 
REMARK       I    between atoms: N1_2  and  C2_3 
REMARK    2  A    between atoms: C2_3  and  C3_5 
ROOT
ATOM      1  C3  <0> d           0.965  -0.482   1.096  0.00  0.00     0.027 C 
ATOM      2  H1  <0> d           0.707  -0.011   2.044  0.00  0.00     0.055 H 
ATOM      3  C4  <0> d           0.002  -0.004   0.002  0.00  0.00    -0.051 C 
ATOM      4  C5  <0> d          -0.019   1.526   0.010  0.00  0.00    -0.049 C 
ATOM      5  C6  <0> d           1.383   2.062  -0.000  0.00  0.00    -0.106 C 
ATOM      6  C7  <0> d           2.429   1.362   0.302  0.00  0.00    -0.106 C 
ATOM      7  C8  <0> d           2.388  -0.085   0.695  0.00  0.00    -0.039 C 
ATOM      8  H6  <0> d          -0.999  -0.385   0.203  0.00  0.00     0.034 H 
ATOM      9  H7  <0> d           0.345  -0.360  -0.969  0.00  0.00     0.034 H 
ATOM     10  H8  <0> d          -0.549   1.885  -0.871  0.00  0.00     0.038 H 
ATOM     11  H9  <0> d          -0.532   1.875   0.906  0.00  0.00     0.038 H 
ATOM     12  H10 <0> d           1.528   3.096  -0.277  0.00  0.00     0.076 H 
ATOM     13  H11 <0> d           3.392   1.851   0.269  0.00  0.00     0.076 H 
ATOM     14  H12 <0> d           3.060  -0.250   1.538  0.00  0.00     0.040 H 
ATOM     15  H13 <0> d           2.709  -0.696  -0.148  0.00  0.00     0.040 H 
ENDROOT
BRANCH   1  16
ATOM     16  C2  <0> d           0.876  -1.981   1.230  0.00  0.00     0.221 C 
ATOM     17  N1  <0> d           1.639  -2.623   2.136  0.00  0.00    -0.365 N 
ATOM     18  H5  <0> d           2.246  -2.120   2.703  0.00  0.00     0.161 HD
ATOM     19  O1  <0> d           0.118  -2.609   0.522  0.00  0.00    -0.273 OA
BRANCH  17  20
ATOM     20  C1  <0> d           1.553  -4.079   2.266  0.00  0.00    -0.018 C 
ATOM     21  H2  <0> d           0.534  -4.360   2.533  0.00  0.00     0.056 H 
ATOM     22  H3  <0> d           1.821  -4.545   1.319  0.00  0.00     0.056 H 
ATOM     23  H4  <0> d           2.238  -4.416   3.044  0.00  0.00     0.056 H 
ENDBRANCH  17  20
ENDBRANCH   1  16
TORSDOF 2
