REMARK  5 active torsions:
REMARK  status: ('A' for Active; 'I' for Inactive)
REMARK    1  A    between atoms: C1_1  and  C2_2 
REMARK    2  A    between atoms: C3_3  and  C4_4 
REMARK    3  A    between atoms: C4_4  and  N1_5 
REMARK    4  A    between atoms: N1_5  and  C5_6 
REMARK    5  A    between atoms: C5_6  and  C6_7 
ROOT
ATOM      1  C5  <0> d          -1.359  -4.627  -0.010  0.00  0.00     0.136 C 
ATOM      2  H7  <0> d          -0.859  -4.992  -0.907  0.00  0.00     0.086 H 
ATOM      3  H8  <0> d          -0.842  -5.002   0.873  0.00  0.00     0.086 H 
ENDROOT
BRANCH   1   4
ATOM      4  N1  <0> d          -1.340  -3.158  -0.002  0.00  0.00     0.098 N 
ATOM      5  H6  <0> d          -1.854  -2.794   0.786  0.00  0.00     0.317 HD
BRANCH   4   6
ATOM      6  C4  <0> d           0.038  -2.650  -0.013  0.00  0.00     0.165 C 
ATOM      7  H4  <0> d           0.548  -3.001  -0.909  0.00  0.00     0.099 H 
ATOM      8  H5  <0> d           0.565  -3.011   0.871  0.00  0.00     0.099 H 
BRANCH   6   9
ATOM      9  C3  <0> d           0.018  -1.178  -0.004  0.00  0.00    -0.077 C 
ATOM     10  C2  <0> d           0.002  -0.004   0.002  0.00  0.00    -0.109 C 
BRANCH  10  11
ATOM     11  C1  <0> d          -0.018   1.468   0.010  0.00  0.00    -0.021 C 
ATOM     12  H1  <0> d           1.005   1.845   0.002  0.00  0.00     0.044 H 
ATOM     13  H2  <0> d          -0.545   1.829  -0.873  0.00  0.00     0.044 H 
ATOM     14  H3  <0> d          -0.528   1.819   0.907  0.00  0.00     0.044 H 
ENDBRANCH  10  11
ENDBRANCH   6   9
ENDBRANCH   4   6
ENDBRANCH   1   4
BRANCH   1  15
ATOM     15  C6  <0> d          -2.787  -5.111   0.001  0.00  0.00    -0.030 A 
ATOM     16  C11 <0> d          -3.453  -5.326  -1.191  0.00  0.00    -0.075 A 
ATOM     17  C10 <0> d          -4.761  -5.774  -1.181  0.00  0.00    -0.082 A 
ATOM     18  H13 <0> d          -2.950  -5.148  -2.130  0.00  0.00     0.084 H 
ATOM     19  C9  <0> d          -5.405  -5.998   0.021  0.00  0.00    -0.083 A 
ATOM     20  H12 <0> d          -5.279  -5.947  -2.112  0.00  0.00     0.083 H 
ATOM     21  C8  <0> d          -4.741  -5.777   1.214  0.00  0.00    -0.082 A 
ATOM     22  H11 <0> d          -6.428  -6.345   0.029  0.00  0.00     0.083 H 
ATOM     23  C7  <0> d          -3.432  -5.334   1.203  0.00  0.00    -0.075 A 
ATOM     24  H10 <0> d          -5.245  -5.952   2.153  0.00  0.00     0.083 H 
ATOM     25  H9  <0> d          -2.913  -5.162   2.135  0.00  0.00     0.084 H 
ENDBRANCH   1  15
TORSDOF 5
