REMARK  8 active torsions:
REMARK  status: ('A' for Active; 'I' for Inactive)
REMARK    1  A    between atoms: C1_1  and  C2_2 
REMARK    2  A    between atoms: C2_2  and  O1_3 
REMARK    3  A    between atoms: O1_3  and  C3_4 
REMARK    4  A    between atoms: C3_4  and  C4_6 
REMARK    5  A    between atoms: C4_6  and  C5_7 
REMARK    6  A    between atoms: C5_7  and  C6_8 
REMARK    7  A    between atoms: C6_8  and  C7_9 
REMARK    8  A    between atoms: C7_9  and  C8_10 
ROOT
ATOM      1  C4  <0> d          -2.881  -2.427   0.017  0.00  0.00     0.029 C 
ATOM      2  H6  <0> d          -3.409  -2.103   0.913  0.00  0.00     0.050 H 
ATOM      3  H7  <0> d          -3.426  -2.093  -0.867  0.00  0.00     0.050 H 
ENDROOT
BRANCH   1   4
ATOM      4  C3  <0> d          -1.496  -1.832   0.006  0.00  0.00     0.260 C 
ATOM      5  O2  <0> d          -0.528  -2.555  -0.007  0.00  0.00    -0.265 OA
BRANCH   4   6
ATOM      6  O1  <0> d          -1.339  -0.499   0.012  0.00  0.00    -0.322 OA
BRANCH   6   7
ATOM      7  C2  <0> d           0.002  -0.004   0.002  0.00  0.00     0.025 C 
ATOM      8  H4  <0> d           0.512  -0.356  -0.895  0.00  0.00     0.074 H 
ATOM      9  H5  <0> d           0.529  -0.365   0.885  0.00  0.00     0.074 H 
BRANCH   7  10
ATOM     10  C1  <0> d          -0.019   1.526   0.010  0.00  0.00    -0.056 C 
ATOM     11  H1  <0> d           1.004   1.903   0.003  0.00  0.00     0.030 H 
ATOM     12  H2  <0> d          -0.546   1.887  -0.873  0.00  0.00     0.030 H 
ATOM     13  H3  <0> d          -0.529   1.877   0.907  0.00  0.00     0.030 H 
ENDBRANCH   7  10
ENDBRANCH   6   7
ENDBRANCH   4   6
ENDBRANCH   1   4
BRANCH   1  14
ATOM     14  C5  <0> d          -2.782  -3.930   0.007  0.00  0.00     0.016 C 
ATOM     15  H8  <0> d          -2.218  -4.430  -0.767  0.00  0.00     0.060 H 
BRANCH  14  16
ATOM     16  C6  <0> d          -3.378  -4.630   0.937  0.00  0.00    -0.171 C 
BRANCH  16  17
ATOM     17  C7  <0> d          -3.973  -5.330   1.866  0.00  0.00     0.003 C 
ATOM     18  H9  <0> d          -4.989  -5.667   1.720  0.00  0.00     0.059 H 
BRANCH  17  19
ATOM     19  C8  <0> d          -3.243  -5.667   3.140  0.00  0.00    -0.062 C 
ATOM     20  H10 <0> d          -2.351  -6.247   2.905  0.00  0.00     0.029 H 
ATOM     21  H11 <0> d          -2.955  -4.747   3.648  0.00  0.00     0.029 H 
ATOM     22  H12 <0> d          -3.896  -6.251   3.789  0.00  0.00     0.029 H 
ENDBRANCH  17  19
ENDBRANCH  16  17
ENDBRANCH  14  16
ENDBRANCH   1  14
TORSDOF 8
