REMARK  0 active torsions:
REMARK  status: ('A' for Active; 'I' for Inactive)
ROOT
ATOM      1  C1  <0> d           0.077  -2.780  -0.015  0.00  0.00    -0.082 A 
ATOM      2  C2  <0> d          -1.142  -2.106   0.000  0.00  0.00    -0.081 A 
ATOM      3  C3  <0> d          -1.192  -0.746   0.009  0.00  0.00    -0.054 A 
ATOM      4  C4  <0> d           0.002  -0.004   0.002  0.00  0.00     0.069 A 
ATOM      5  C5  <0> d           1.240  -0.692  -0.013  0.00  0.00     0.031 A 
ATOM      6  C6  <0> d           1.254  -2.096  -0.022  0.00  0.00    -0.068 A 
ATOM      7  C7  <0> d           2.436   0.054  -0.020  0.00  0.00     0.130 A 
ATOM      8  C8  <0> d           2.344   1.421  -0.012  0.00  0.00    -0.028 A 
ATOM      9  C9  <0> d           1.094   2.031   0.003  0.00  0.00     0.006 A 
ATOM     10  N1  <0> d          -0.016   1.333   0.009  0.00  0.00    -0.260 NA
ATOM     11  F1  <0> d           3.639  -0.561  -0.035  0.00  0.00    -0.205 F 
ATOM     12  H1  <0> d           0.089  -3.860  -0.022  0.00  0.00     0.083 H 
ATOM     13  H2  <0> d          -2.062  -2.671   0.006  0.00  0.00     0.083 H 
ATOM     14  H3  <0> d          -2.145  -0.238   0.021  0.00  0.00     0.087 H 
ATOM     15  H4  <0> d           2.193  -2.629  -0.034  0.00  0.00     0.085 H 
ATOM     16  H5  <0> d           3.240   2.023  -0.017  0.00  0.00     0.090 H 
ATOM     17  H6  <0> d           1.037   3.110   0.009  0.00  0.00     0.114 H 
ENDROOT
TORSDOF 0
