REMARK  1 active torsions:
REMARK  status: ('A' for Active; 'I' for Inactive)
REMARK    1  A    between atoms: C1_1  and  C2_2 
ROOT
ATOM      1  C2  <0> d           0.002  -0.004   0.002  0.00  0.00    -0.055 C 
ATOM      2  C3  <0> d           0.006  -0.666  -1.146  0.00  0.00    -0.096 C 
ATOM      3  C4  <0> d           0.016  -2.169  -1.176  0.00  0.00    -0.046 C 
ATOM      4  C5  <0> d           0.856  -2.726  -0.028  0.00  0.00    -0.037 C 
ATOM      5  C6  <0> d           0.435  -2.089   1.270  0.00  0.00    -0.047 A 
ATOM      6  C7  <0> d           0.024  -0.756   1.274  0.00  0.00    -0.024 A 
ATOM      7  C8  <0> d          -0.362  -0.154   2.469  0.00  0.00    -0.072 A 
ATOM      8  C9  <0> d          -0.331  -0.882   3.642  0.00  0.00    -0.082 A 
ATOM      9  C10 <0> d           0.082  -2.202   3.630  0.00  0.00    -0.082 A 
ATOM     10  C11 <0> d           0.456  -2.805   2.446  0.00  0.00    -0.076 A 
ATOM     11  H4  <0> d           0.001  -0.117  -2.076  0.00  0.00     0.077 H 
ATOM     12  H5  <0> d          -1.006  -2.537  -1.084  0.00  0.00     0.039 H 
ATOM     13  H6  <0> d           0.435  -2.506  -2.124  0.00  0.00     0.039 H 
ATOM     14  H7  <0> d           0.713  -3.805   0.035  0.00  0.00     0.040 H 
ATOM     15  H8  <0> d           1.909  -2.512  -0.212  0.00  0.00     0.040 H 
ATOM     16  H9  <0> d          -0.683   0.877   2.478  0.00  0.00     0.084 H 
ATOM     17  H10 <0> d          -0.629  -0.419   4.571  0.00  0.00     0.083 H 
ATOM     18  H11 <0> d           0.103  -2.766   4.551  0.00  0.00     0.083 H 
ATOM     19  H12 <0> d           0.777  -3.837   2.446  0.00  0.00     0.084 H 
ENDROOT
BRANCH   1  20
ATOM     20  C1  <0> d          -0.018   1.503   0.010  0.00  0.00    -0.051 C 
ATOM     21  H1  <0> d           1.004   1.880   0.003  0.00  0.00     0.033 H 
ATOM     22  H2  <0> d          -0.545   1.864  -0.873  0.00  0.00     0.033 H 
ATOM     23  H3  <0> d          -0.529   1.854   0.907  0.00  0.00     0.033 H 
ENDBRANCH   1  20
TORSDOF 1
