REMARK  4 active torsions:
REMARK  status: ('A' for Active; 'I' for Inactive)
REMARK    1  A    between atoms: C1_1  and  C2_2 
REMARK    2  A    between atoms: C1_1  and  O3_10 
REMARK    3  A    between atoms: C2_2  and  C3_4 
REMARK    4  A    between atoms: C2_2  and  N1_6 
REMARK       I    between atoms: N1_6  and  C4_7 
REMARK       I    between atoms: C4_7  and  N2_9 
ROOT
ATOM      1  C2  <0> d          -1.329   1.940   0.019  0.00  0.00     0.118 C 
ATOM      2  H1  <0> d          -1.400   2.570  -0.867  0.00  0.00     0.093 H 
ENDROOT
BRANCH   1   3
ATOM      3  C1  <0> d          -1.417   2.811   1.273  0.00  0.00     0.045 C 
ATOM      4  H2  <0> d          -0.652   3.587   1.230  0.00  0.00     0.077 H 
ATOM      5  H3  <0> d          -2.402   3.274   1.326  0.00  0.00     0.077 H 
BRANCH   3   6
ATOM      6  O3  <0> d          -1.208   2.001   2.432  0.00  0.00    -0.398 OA
ATOM      7  H7  <0> d          -1.249   2.489   3.266  0.00  0.00     0.209 HD
ENDBRANCH   3   6
ENDBRANCH   1   3
BRANCH   1   8
ATOM      8  C3  <0> d          -0.014   1.204   0.009  0.00  0.00     0.199 C 
ATOM      9  O1  <0> d           0.002  -0.004   0.002  0.00  0.00    -0.646 OA
ATOM     10  O4  <0> d           1.139   1.891   0.001  0.00  0.00    -0.646 OA
ENDBRANCH   1   8
BRANCH   1  11
ATOM     11  N1  <0> d          -2.430   0.973   0.019  0.00  0.00    -0.327 N 
ATOM     12  C4  <0> d          -2.875   0.458  -1.145  0.00  0.00     0.314 C 
ATOM     13  O2  <0> d          -2.362   0.796  -2.194  0.00  0.00    -0.248 OA
ATOM     14  N2  <0> d          -3.887  -0.432  -1.145  0.00  0.00    -0.352 N 
ATOM     15  H5  <0> d          -4.296  -0.702  -0.307  0.00  0.00     0.160 HD
ATOM     16  H6  <0> d          -4.207  -0.802  -1.982  0.00  0.00     0.160 HD
ATOM     17  H4  <0> d          -2.839   0.703   0.856  0.00  0.00     0.165 HD
ENDBRANCH   1  11
TORSDOF 4
