REMARK  0 active torsions:
REMARK  status: ('A' for Active; 'I' for Inactive)
ROOT
ATOM      1  C1  <0> d          -1.241   3.166   0.031  0.00  0.00    -0.062 A 
ATOM      2  C2  <0> d          -0.088   3.884   0.024  0.00  0.00    -0.069 A 
ATOM      3  C3  <0> d           1.150   3.220   0.009  0.00  0.00    -0.008 A 
ATOM      4  C4  <0> d           2.367   3.921   0.000  0.00  0.00     0.013 A 
ATOM      5  N1  <0> d           3.502   3.262  -0.015  0.00  0.00    -0.272 NA
ATOM      6  C5  <0> d           3.564   1.938  -0.022  0.00  0.00     0.003 A 
ATOM      7  C6  <0> d           2.442   1.166  -0.016  0.00  0.00    -0.055 A 
ATOM      8  C7  <0> d           1.186   1.800   0.000  0.00  0.00    -0.022 A 
ATOM      9  C8  <0> d          -0.013   1.076   0.008  0.00  0.00    -0.052 A 
ATOM     10  C9  <0> d          -1.218   1.760   0.017  0.00  0.00     0.045 A 
ATOM     11  C10 <0> d          -2.450   1.030   0.019  0.00  0.00     0.099 C 
ATOM     12  N2  <0> d          -3.427   0.450   0.020  0.00  0.00    -0.191 NA
ATOM     13  H1  <0> d          -2.189   3.683   0.043  0.00  0.00     0.085 H 
ATOM     14  H2  <0> d          -0.122   4.963   0.030  0.00  0.00     0.085 H 
ATOM     15  H3  <0> d           2.369   5.000   0.007  0.00  0.00     0.116 H 
ATOM     16  H4  <0> d           4.532   1.458  -0.035  0.00  0.00     0.114 H 
ATOM     17  H5  <0> d           2.515   0.088  -0.022  0.00  0.00     0.087 H 
ATOM     18  H6  <0> d           0.002  -0.004   0.002  0.00  0.00     0.087 H 
ENDROOT
TORSDOF 0
