REMARK  2 active torsions:
REMARK  status: ('A' for Active; 'I' for Inactive)
REMARK    1  A    between atoms: N1_3  and  C6_8 
REMARK    2  A    between atoms: C6_8  and  C7_9 
ROOT
ATOM      1  C1  <0> d          -2.330   1.205   2.871  0.00  0.00    -0.020 A 
ATOM      2  C2  <0> d          -1.679   0.797   1.760  0.00  0.00    -0.017 A 
ATOM      3  N1  <0> d          -0.698   1.558   1.213  0.00  0.00    -0.356 N 
ATOM      4  C3  <0> d          -0.335   2.744   1.761  0.00  0.00    -0.017 A 
ATOM      5  C4  <0> d          -0.952   3.211   2.869  0.00  0.00    -0.020 A 
ATOM      6  C5  <0> d          -1.979   2.440   3.464  0.00  0.00     0.174 A 
ATOM      7  O1  <0> d          -2.551   2.835   4.469  0.00  0.00    -0.288 OA
ATOM      8  H1  <0> d          -3.110   0.594   3.302  0.00  0.00     0.091 H 
ATOM      9  H2  <0> d          -1.941  -0.145   1.302  0.00  0.00     0.111 H 
ATOM     10  H3  <0> d           0.453   3.325   1.304  0.00  0.00     0.111 H 
ATOM     11  H4  <0> d          -0.661   4.158   3.298  0.00  0.00     0.091 H 
ENDROOT
BRANCH   3  12
ATOM     12  C6  <0> d          -0.013   1.086   0.008  0.00  0.00     0.079 C 
ATOM     13  H5  <0> d           0.002  -0.004   0.002  0.00  0.00     0.081 H 
ATOM     14  H6  <0> d           1.010   1.463   0.000  0.00  0.00     0.081 H 
BRANCH  12  15
ATOM     15  C7  <0> d          -0.742   1.585  -1.213  0.00  0.00     0.191 C 
ATOM     16  O2  <0> d          -1.732   2.266  -1.089  0.00  0.00    -0.647 OA
ATOM     17  O3  <0> d          -0.290   1.274  -2.438  0.00  0.00    -0.647 OA
ENDBRANCH  12  15
ENDBRANCH   3  12
TORSDOF 2
