REMARK  2 active torsions:
REMARK  status: ('A' for Active; 'I' for Inactive)
REMARK    1  A    between atoms: C1_1  and  C2_2 
REMARK    2  A    between atoms: C4_6  and  C5_8 
ROOT
ATOM      1  C2  <0> d           0.002  -0.004   0.002  0.00  0.00     0.100 A 
ATOM      2  N1  <0> d           0.008  -0.783  -1.103  0.00  0.00    -0.352 N 
ATOM      3  H1  <0> d          -0.001  -0.474  -2.022  0.00  0.00     0.166 HD
ATOM      4  C3  <0> d           0.028  -2.083  -0.687  0.00  0.00     0.007 A 
ATOM      5  C4  <0> d           0.034  -2.059   0.672  0.00  0.00     0.084 A 
ATOM      6  N2  <0> d           0.023  -0.766   1.059  0.00  0.00    -0.234 NA
ATOM      7  H5  <0> d           0.037  -2.961  -1.316  0.00  0.00     0.115 H 
ENDROOT
BRANCH   5   8
ATOM      8  C5  <0> d           0.055  -3.240   1.569  0.00  0.00    -0.003 A 
ATOM      9  C9  <0> d           0.059  -3.087   2.958  0.00  0.00    -0.054 A 
ATOM     10  C8  <0> d           0.074  -4.212   3.755  0.00  0.00     0.003 A 
ATOM     11  H9  <0> d           0.048  -2.102   3.401  0.00  0.00     0.087 H 
ATOM     12  N3  <0> d           0.093  -5.419   3.222  0.00  0.00    -0.273 NA
ATOM     13  H8  <0> d           0.073  -4.104   4.830  0.00  0.00     0.114 H 
ATOM     14  C7  <0> d           0.095  -5.607   1.916  0.00  0.00     0.003 A 
ATOM     15  C6  <0> d           0.076  -4.537   1.047  0.00  0.00    -0.054 A 
ATOM     16  H7  <0> d           0.110  -6.613   1.523  0.00  0.00     0.114 H 
ATOM     17  H6  <0> d           0.076  -4.698  -0.021  0.00  0.00     0.087 H 
ENDBRANCH   5   8
BRANCH   1  18
ATOM     18  C1  <0> d          -0.018   1.503   0.010  0.00  0.00    -0.021 C 
ATOM     19  H2  <0> d           1.004   1.880   0.003  0.00  0.00     0.037 H 
ATOM     20  H3  <0> d          -0.545   1.864  -0.873  0.00  0.00     0.037 H 
ATOM     21  H4  <0> d          -0.529   1.854   0.907  0.00  0.00     0.037 H 
ENDBRANCH   1  18
TORSDOF 2
