REMARK  0 active torsions:
REMARK  status: ('A' for Active; 'I' for Inactive)
ROOT
ATOM      1  C1  <0> d          -0.017   4.070   0.024  0.00  0.00    -0.042 A 
ATOM      2  C2  <0> d           1.152   3.335   0.009  0.00  0.00     0.007 A 
ATOM      3  N1  <0> d           1.122   2.016   0.002  0.00  0.00    -0.230 NA
ATOM      4  C3  <0> d          -0.016   1.347   0.009  0.00  0.00     0.250 A 
ATOM      5  C4  <0> d          -1.230   2.017   0.019  0.00  0.00     0.195 A 
ATOM      6  C5  <0> d          -1.235   3.405   0.032  0.00  0.00     0.078 A 
ATOM      7 Cl1  <0> d          -2.729   4.289   0.051  0.00  0.00    -0.081 Cl
ATOM      8  F1  <0> d          -2.393   1.328   0.021  0.00  0.00    -0.199 F 
ATOM      9  F2  <0> d           0.002  -0.004   0.002  0.00  0.00    -0.181 F 
ATOM     10  H1  <0> d           0.017   5.149   0.030  0.00  0.00     0.088 H 
ATOM     11  H2  <0> d           2.104   3.846   0.002  0.00  0.00     0.114 H 
ENDROOT
TORSDOF 0
