REMARK  2 active torsions:
REMARK  status: ('A' for Active; 'I' for Inactive)
REMARK    1  A    between atoms: C2_2  and  C3_3 
REMARK    2  A    between atoms: C3_3  and  N1_4 
ROOT
ATOM      1  C1  <0> d          -1.292   1.962  -2.136  0.00  0.00    -0.152 C 
ATOM      2  C2  <0> d          -0.725   1.573  -1.185  0.00  0.00    -0.098 C 
ATOM      3  H1  <0> d          -1.825   2.327  -3.027  0.00  0.00     0.166 H 
ENDROOT
BRANCH   2   4
ATOM      4  C3  <0> d          -0.013   1.086   0.008  0.00  0.00     0.052 C 
ATOM      5  H2  <0> d           0.002  -0.014   0.002  0.00  0.00     0.083 H 
ATOM      6  H3  <0> d           1.019   1.466   0.000  0.00  0.00     0.083 H 
BRANCH   4   7
ATOM      7  N1  <0> d          -0.698   1.558   1.213  0.00  0.00    -0.342 N 
ATOM      8  C7  <0> d          -1.681   0.888   1.839  0.00  0.00     0.220 C 
ATOM      9  C6  <0> d          -2.164   1.672   3.039  0.00  0.00     0.011 C 
ATOM     10  O1  <0> d          -2.118  -0.189   1.492  0.00  0.00    -0.273 OA
ATOM     11  C5  <0> d          -1.617   3.099   2.804  0.00  0.00    -0.042 C 
ATOM     12  H8  <0> d          -1.760   1.275   3.982  0.00  0.00     0.047 H 
ATOM     13  H9  <0> d          -3.262   1.705   3.096  0.00  0.00     0.047 H 
ATOM     14  C4  <0> d          -0.396   2.821   1.897  0.00  0.00    -0.001 C 
ATOM     15  H6  <0> d          -1.282   3.593   3.729  0.00  0.00     0.036 H 
ATOM     16  H7  <0> d          -2.326   3.754   2.276  0.00  0.00     0.036 H 
ATOM     17  H4  <0> d           0.526   2.708   2.486  0.00  0.00     0.064 H 
ATOM     18  H5  <0> d          -0.259   3.618   1.151  0.00  0.00     0.064 H 
ENDBRANCH   4   7
ENDBRANCH   2   4
TORSDOF 2
