REMARK  1 active torsions:
REMARK  status: ('A' for Active; 'I' for Inactive)
REMARK    1  A    between atoms: C3_3  and  N2_9 
ROOT
ATOM      1  C1  <0> d          -0.045   3.725   0.021  0.00  0.00    -0.074 A 
ATOM      2  C2  <0> d           1.165   3.033   0.006  0.00  0.00    -0.041 A 
ATOM      3  C3  <0> d           1.164   1.655  -0.000  0.00  0.00     0.101 A 
ATOM      4  N1  <0> d          -0.011   0.966   0.007  0.00  0.00    -0.310 N 
ATOM      5  H1  <0> d          -0.004  -0.134   0.006  0.00  0.00     0.170 HD
ATOM      6  C4  <0> d          -1.190   1.615   0.017  0.00  0.00     0.246 A 
ATOM      7  O1  <0> d          -2.233   0.980   0.018  0.00  0.00    -0.268 OA
ATOM      8  C5  <0> d          -1.226   3.014   0.029  0.00  0.00    -0.017 A 
ATOM      9  H2  <0> d          -0.057   4.804   0.026  0.00  0.00     0.083 H 
ATOM     10  H3  <0> d           2.100   3.575   0.000  0.00  0.00     0.089 H 
ATOM     11  H4  <0> d          -2.173   3.533   0.041  0.00  0.00     0.092 H 
ENDROOT
BRANCH   3  12
ATOM     12  N2  <0> d           2.357   0.971  -0.015  0.00  0.00    -0.385 N 
ATOM     13  H5  <0> d           2.360  -0.130  -0.020  0.00  0.00     0.157 HD
ATOM     14  H6  <0> d           3.308   1.523  -0.021  0.00  0.00     0.157 HD
ENDBRANCH   3  12
TORSDOF 1
