REMARK  2 active torsions:
REMARK  status: ('A' for Active; 'I' for Inactive)
REMARK    1  A    between atoms: C1_1  and  C2_2 
REMARK    2  A    between atoms: C2_2  and  C3_3 
ROOT
ATOM      1  C3  <0> d          -0.018   1.468   0.010  0.00  0.00     0.113 C 
ATOM      2  C4  <0> d           0.002  -0.004   0.002  0.00  0.00     0.078 C 
ATOM      3  N1  <0> d           0.018  -1.140  -0.004  0.00  0.00    -0.196 NA
ATOM      4  C5  <0> d           1.363   1.977  -0.000  0.00  0.00     0.078 C 
ATOM      5  N2  <0> d           2.429   2.370  -0.008  0.00  0.00    -0.196 NA
ATOM      6  H6  <0> d          -0.523   1.813  -0.904  0.00  0.00     0.086 H 
ENDROOT
BRANCH   1   7
ATOM      7  C2  <0> d          -0.734   1.961   1.269  0.00  0.00    -0.041 C 
ATOM      8  H4  <0> d          -0.153   1.673   2.158  0.00  0.00     0.035 H 
ATOM      9  H5  <0> d          -1.735   1.509   1.322  0.00  0.00     0.035 H 
BRANCH   7  10
ATOM     10  C1  <0> d          -0.865   3.485   1.217  0.00  0.00    -0.074 C 
ATOM     11  H1  <0> d          -1.380   3.839   2.122  0.00  0.00     0.027 H 
ATOM     12  H2  <0> d          -1.446   3.773   0.328  0.00  0.00     0.027 H 
ATOM     13  H3  <0> d           0.136   3.937   1.164  0.00  0.00     0.027 H 
ENDBRANCH   7  10
ENDBRANCH   1   7
TORSDOF 2
