REMARK  1 active torsions:
REMARK  status: ('A' for Active; 'I' for Inactive)
REMARK    1  A    between atoms: C1_1  and  C2_2 
ROOT
ATOM      1  C2  <0> d          -0.834   1.634  -1.183  0.00  0.00     0.045 C 
ATOM      2  H1  <0> d          -0.848   0.918  -2.004  0.00  0.00     0.084 H 
ATOM      3  C3  <0> d          -0.013   1.086   0.008  0.00  0.00    -0.014 C 
ATOM      4  C4  <0> d          -0.795   1.611   1.196  0.00  0.00    -0.021 A 
ATOM      5  C5  <0> d          -0.476   1.732   2.527  0.00  0.00    -0.054 A 
ATOM      6  C6  <0> d          -1.409   2.270   3.420  0.00  0.00     0.045 A 
ATOM      7  C7  <0> d          -2.658   2.679   2.945  0.00  0.00    -0.060 A 
ATOM      8  C8  <0> d          -2.969   2.550   1.610  0.00  0.00    -0.049 A 
ATOM      9  C9  <0> d          -2.041   2.009   0.718  0.00  0.00     0.075 A 
ATOM     10  O1  <0> d          -2.147   1.790  -0.620  0.00  0.00    -0.345 OA
ATOM     11  C10 <0> d          -1.086   2.401   4.809  0.00  0.00     0.099 C 
ATOM     12  N1  <0> d          -0.829   2.505   5.910  0.00  0.00    -0.191 NA
ATOM     13  H5  <0> d           0.002  -0.004   0.002  0.00  0.00     0.044 H 
ATOM     14  H6  <0> d           1.001   1.487   0.001  0.00  0.00     0.044 H 
ATOM     15  H7  <0> d           0.492   1.414   2.882  0.00  0.00     0.086 H 
ATOM     16  H8  <0> d          -3.383   3.098   3.628  0.00  0.00     0.086 H 
ATOM     17  H9  <0> d          -3.936   2.868   1.250  0.00  0.00     0.087 H 
ENDROOT
BRANCH   1  18
ATOM     18  C1  <0> d          -0.280   2.983  -1.647  0.00  0.00    -0.051 C 
ATOM     19  H2  <0> d           0.756   2.862  -1.961  0.00  0.00     0.030 H 
ATOM     20  H3  <0> d          -0.873   3.350  -2.485  0.00  0.00     0.030 H 
ATOM     21  H4  <0> d          -0.330   3.698  -0.826  0.00  0.00     0.030 H 
ENDBRANCH   1  18
TORSDOF 1
