REMARK  1 active torsions:
REMARK  status: ('A' for Active; 'I' for Inactive)
REMARK    1  A    between atoms: C1_1  and  C2_2 
ROOT
ATOM      1  C2  <0> d           1.319   2.065   0.001  0.00  0.00     0.145 A 
ATOM      2  C3  <0> d          -0.016   1.346   0.009  0.00  0.00     0.267 A 
ATOM      3  O1  <0> d          -1.061   1.960   0.018  0.00  0.00    -0.270 OA
ATOM      4  N1  <0> d           0.002  -0.004   0.002  0.00  0.00    -0.157 NA
ATOM      5  C4  <0> d           1.147  -0.697  -0.013  0.00  0.00     0.351 A 
ATOM      6  O2  <0> d           1.071  -1.909  -0.018  0.00  0.00    -0.244 OA
ATOM      7  N2  <0> d           2.368  -0.152  -0.021  0.00  0.00    -0.276 N 
ATOM      8  C5  <0> d           2.555   1.185  -0.015  0.00  0.00     0.245 A 
ATOM      9  O3  <0> d           3.668   1.665  -0.023  0.00  0.00    -0.272 OA
ATOM     10  H4  <0> d           3.259  -0.798  -0.034  0.00  0.00     0.173 HD
ENDROOT
BRANCH   1  11
ATOM     11  C1  <0> d           1.364   2.971  -1.232  0.00  0.00    -0.051 C 
ATOM     12  H1  <0> d           0.476   3.620  -1.242  0.00  0.00     0.029 H 
ATOM     13  H2  <0> d           1.376   2.353  -2.141  0.00  0.00     0.029 H 
ATOM     14  H3  <0> d           2.271   3.592  -1.198  0.00  0.00     0.029 H 
ENDBRANCH   1  11
TORSDOF 1
