REMARK  1 active torsions:
REMARK  status: ('A' for Active; 'I' for Inactive)
REMARK    1  A    between atoms: C3_3  and  C5_6 
ROOT
ATOM      1  C1  <0> d          -3.427  -1.597   0.028  0.00  0.00    -0.075 A 
ATOM      2  C2  <0> d          -2.501  -0.577   0.029  0.00  0.00    -0.063 A 
ATOM      3  C3  <0> d          -1.168  -0.898   0.008  0.00  0.00     0.040 A 
ATOM      4  S1  <0> d          -1.220  -2.683  -0.001  0.00  0.00    -0.099 SA
ATOM      5  C4  <0> d          -2.994  -2.884   0.016  0.00  0.00    -0.044 A 
ATOM      6  H1  <0> d          -4.484  -1.376   0.040  0.00  0.00     0.084 H 
ATOM      7  H2  <0> d          -2.819   0.456   0.043  0.00  0.00     0.085 H 
ATOM      8  H3  <0> d          -3.573  -3.795   0.018  0.00  0.00     0.095 H 
ENDROOT
BRANCH   3   9
ATOM      9  C5  <0> d           0.002  -0.004   0.002  0.00  0.00     0.111 A 
ATOM     10  O1  <0> d          -0.016   1.347   0.009  0.00  0.00    -0.301 OA
ATOM     11  C7  <0> d           1.256   1.772  -0.000  0.00  0.00     0.103 A 
ATOM     12  N1  <0> d           2.050   0.739  -0.013  0.00  0.00    -0.246 NA
ATOM     13  H5  <0> d           1.571   2.805   0.002  0.00  0.00     0.155 H 
ATOM     14  C6  <0> d           1.310  -0.379  -0.013  0.00  0.00     0.038 A 
ATOM     15  H4  <0> d           1.684  -1.392  -0.022  0.00  0.00     0.119 H 
ENDBRANCH   3   9
TORSDOF 1
