REMARK  2 active torsions:
REMARK  status: ('A' for Active; 'I' for Inactive)
REMARK    1  A    between atoms: C1_1  and  N1_2 
REMARK    2  A    between atoms: C4_5  and  N2_9 
ROOT
ATOM      1  N1  <0> d           0.002  -0.004   0.002  0.00  0.00    -0.329 N 
ATOM      2  C2  <0> d           0.005  -0.666  -1.186  0.00  0.00    -0.016 A 
ATOM      3  C3  <0> d           0.024  -2.014  -1.228  0.00  0.00    -0.043 A 
ATOM      4  C4  <0> d           0.040  -2.752  -0.025  0.00  0.00     0.032 A 
ATOM      5  C5  <0> d           0.037  -2.070   1.181  0.00  0.00     0.008 A 
ATOM      6  C6  <0> d           0.022  -0.672   1.170  0.00  0.00     0.249 A 
ATOM      7  O1  <0> d           0.024  -0.055   2.224  0.00  0.00    -0.268 OA
ATOM      8  H4  <0> d          -0.007  -0.104  -2.108  0.00  0.00     0.111 H 
ATOM      9  H5  <0> d           0.026  -2.527  -2.178  0.00  0.00     0.089 H 
ATOM     10  H6  <0> d           0.048  -2.610   2.116  0.00  0.00     0.095 H 
ENDROOT
BRANCH   1  11
ATOM     11  C1  <0> d          -0.018   1.461   0.010  0.00  0.00    -0.012 C 
ATOM     12  H1  <0> d           1.005   1.838   0.002  0.00  0.00     0.057 H 
ATOM     13  H2  <0> d          -0.545   1.822  -0.873  0.00  0.00     0.057 H 
ATOM     14  H3  <0> d          -0.528   1.812   0.907  0.00  0.00     0.057 H 
ENDBRANCH   1  11
BRANCH   4  15
ATOM     15  N2  <0> d           0.059  -4.135  -0.049  0.00  0.00    -0.399 N 
ATOM     16  H7  <0> d           0.061  -4.605  -0.898  0.00  0.00     0.156 HD
ATOM     17  H8  <0> d           0.070  -4.635   0.782  0.00  0.00     0.156 HD
ENDBRANCH   4  15
TORSDOF 2
