REMARK  3 active torsions:
REMARK  status: ('A' for Active; 'I' for Inactive)
REMARK    1  A    between atoms: C1_1  and  C2_2 
REMARK    2  A    between atoms: C2_2  and  C3_4 
REMARK    3  A    between atoms: C5_7  and  C7_12 
ROOT
ATOM      1  C3  <0> d          -0.000  -0.750  -1.307  0.00  0.00     0.090 C 
ATOM      2  H1  <0> d           0.561  -0.199  -2.062  0.00  0.00     0.067 H 
ATOM      3  C4  <0> d           0.589  -2.172  -1.123  0.00  0.00    -0.019 C 
ATOM      4  C5  <0> d          -0.712  -3.014  -1.022  0.00  0.00     0.065 C 
ATOM      5  H2  <0> d          -1.104  -2.998  -0.005  0.00  0.00     0.090 H 
ATOM      6  O2  <0> d          -1.604  -2.327  -1.926  0.00  0.00    -0.311 OA
ATOM      7  C6  <0> d          -1.421  -0.998  -1.776  0.00  0.00     0.271 C 
ATOM      8  O3  <0> d          -2.252  -0.144  -1.980  0.00  0.00    -0.264 OA
ATOM      9  H6  <0> d           1.183  -2.467  -1.989  0.00  0.00     0.039 H 
ATOM     10  H7  <0> d           1.174  -2.240  -0.206  0.00  0.00     0.039 H 
ENDROOT
BRANCH   1  11
ATOM     11  C2  <0> d           0.002  -0.004   0.002  0.00  0.00     0.136 C 
ATOM     12  O1  <0> d           0.020  -0.613   1.044  0.00  0.00    -0.297 OA
BRANCH  11  13
ATOM     13  C1  <0> d          -0.018   1.503   0.010  0.00  0.00    -0.020 C 
ATOM     14  H3  <0> d           1.004   1.880   0.003  0.00  0.00     0.037 H 
ATOM     15  H4  <0> d          -0.545   1.864  -0.873  0.00  0.00     0.037 H 
ATOM     16  H5  <0> d          -0.529   1.854   0.907  0.00  0.00     0.037 H 
ENDBRANCH  11  13
ENDBRANCH   1  11
BRANCH   4  17
ATOM     17  C7  <0> d          -0.469  -4.429  -1.478  0.00  0.00    -0.084 C 
ATOM     18  C8  <0> d          -0.670  -5.426  -0.652  0.00  0.00    -0.122 C 
ATOM     19  H9  <0> d          -1.010  -5.234   0.355  0.00  0.00     0.066 H 
ATOM     20  H10 <0> d          -0.496  -6.441  -0.978  0.00  0.00     0.066 H 
ATOM     21  H8  <0> d          -0.129  -4.622  -2.484  0.00  0.00     0.079 H 
ENDBRANCH   4  17
TORSDOF 3
