REMARK  0 active torsions:
REMARK  status: ('A' for Active; 'I' for Inactive)
ROOT
ATOM      1  C1  <0> d           2.221   1.046  -0.013  0.00  0.00    -0.073 A 
ATOM      2  C2  <0> d           1.302   2.080   0.001  0.00  0.00    -0.038 A 
ATOM      3  C3  <0> d          -0.022   1.781   0.012  0.00  0.00     0.157 A 
ATOM      4  S1  <0> d           0.002  -0.004   0.002  0.00  0.00    -0.072 SA
ATOM      5  C4  <0> d           1.772  -0.232  -0.016  0.00  0.00    -0.042 A 
ATOM      6  F1  <0> d          -1.083   2.618   0.022  0.00  0.00    -0.198 F 
ATOM      7  H1  <0> d           3.281   1.255  -0.023  0.00  0.00     0.084 H 
ATOM      8  H2  <0> d           1.633   3.108   0.003  0.00  0.00     0.089 H 
ATOM      9  H3  <0> d           2.339  -1.152  -0.027  0.00  0.00     0.095 H 
ENDROOT
TORSDOF 0
