REMARK  5 active torsions:
REMARK  status: ('A' for Active; 'I' for Inactive)
REMARK    1  A    between atoms: C1_1  and  N1_2 
REMARK    2  A    between atoms: N1_2  and  C2_3 
REMARK    3  A    between atoms: N1_2  and  C3_4 
REMARK    4  A    between atoms: C6_8  and  O1_10 
REMARK    5  A    between atoms: O1_10  and  C7_11 
ROOT
ATOM      1  C3  <0> d           3.484   1.971  -0.021  0.00  0.00     0.726 A 
ATOM      2  N2  <0> d           3.577   3.293  -0.015  0.00  0.00    -0.075 NA
ATOM      3  C4  <0> d           2.491   4.051  -0.000  0.00  0.00     0.025 A 
ATOM      4  C5  <0> d           1.247   3.449   0.009  0.00  0.00    -0.014 A 
ATOM      5  C6  <0> d           1.182   2.056   0.002  0.00  0.00     0.184 A 
ATOM      6  N3  <0> d           2.310   1.358  -0.007  0.00  0.00    -0.038 NA
ATOM      7  H7  <0> d           2.577   5.128   0.005  0.00  0.00     0.115 H 
ATOM      8  H8  <0> d           0.346   4.044   0.021  0.00  0.00     0.092 H 
ENDROOT
BRANCH   1   9
ATOM      9  N1  <0> d           4.642   1.213  -0.035  0.00  0.00    -0.223 N 
BRANCH   9  10
ATOM     10  C1  <0> d           5.950   1.874  -0.044  0.00  0.00    -0.003 C 
ATOM     11  H1  <0> d           5.810   2.965  -0.037  0.00  0.00     0.057 H 
ATOM     12  H2  <0> d           6.503   1.581  -0.949  0.00  0.00     0.057 H 
ATOM     13  H3  <0> d           6.519   1.571   0.847  0.00  0.00     0.057 H 
ENDBRANCH   9  10
BRANCH   9  14
ATOM     14  C2  <0> d           4.560  -0.249  -0.043  0.00  0.00    -0.003 C 
ATOM     15  H4  <0> d           3.504  -0.557  -0.034  0.00  0.00     0.057 H 
ATOM     16  H5  <0> d           5.065  -0.649   0.849  0.00  0.00     0.057 H 
ATOM     17  H6  <0> d           5.049  -0.640  -0.947  0.00  0.00     0.057 H 
ENDBRANCH   9  14
ENDBRANCH   1   9
BRANCH   5  18
ATOM     18  O1  <0> d          -0.017   1.425   0.010  0.00  0.00    -0.339 OA
BRANCH  18  19
ATOM     19  C7  <0> d           0.002  -0.004   0.002  0.00  0.00     0.012 C 
ATOM     20  H9  <0> d          -1.030  -0.385   0.010  0.00  0.00     0.067 H 
ATOM     21  H10 <0> d           0.534  -0.368   0.893  0.00  0.00     0.067 H 
ATOM     22  H11 <0> d           0.517  -0.359  -0.903  0.00  0.00     0.067 H 
ENDBRANCH  18  19
ENDBRANCH   5  18
TORSDOF 5
