REMARK  1 active torsions:
REMARK  status: ('A' for Active; 'I' for Inactive)
REMARK    1  A    between atoms: C10_12  and  O1_14 
ROOT
ATOM      1  C1  <0> d          -0.019   1.526   0.010  0.00  0.00    -0.065 C 
ATOM      2  C2  <0> d           1.417   2.055  -0.000  0.00  0.00    -0.065 C 
ATOM      3  C3  <0> d           2.133   1.562  -1.259  0.00  0.00    -0.059 C 
ATOM      4  C4  <0> d           2.154   0.032  -1.268  0.00  0.00    -0.026 C 
ATOM      5  H1  <0> d           2.681  -0.329  -0.385  0.00  0.00     0.044 H 
ATOM      6  C5  <0> d           0.718  -0.497  -1.257  0.00  0.00    -0.048 C 
ATOM      7  H2  <0> d           0.733  -1.587  -1.263  0.00  0.00     0.040 H 
ATOM      8  C6  <0> d           0.002  -0.004   0.002  0.00  0.00    -0.061 C 
ATOM      9  C7  <0> d          -0.022   0.009  -2.496  0.00  0.00    -0.061 C 
ATOM     10  C8  <0> d           0.694  -0.484  -3.755  0.00  0.00    -0.062 C 
ATOM     11  C9  <0> d           2.130   0.045  -3.766  0.00  0.00    -0.041 C 
ATOM     12  C10 <0> d           2.870  -0.461  -2.526  0.00  0.00     0.039 C 
ATOM     13  H3  <0> d           2.885  -1.551  -2.532  0.00  0.00     0.083 H 
ATOM     14  H4  <0> d          -0.529   1.877   0.907  0.00  0.00     0.033 H 
ATOM     15  H5  <0> d          -0.546   1.887  -0.873  0.00  0.00     0.033 H 
ATOM     16  H6  <0> d           1.402   3.145   0.006  0.00  0.00     0.033 H 
ATOM     17  H7  <0> d           1.944   1.694   0.883  0.00  0.00     0.033 H 
ATOM     18  H8  <0> d           1.606   1.923  -2.142  0.00  0.00     0.033 H 
ATOM     19  H9  <0> d           3.155   1.939  -1.267  0.00  0.00     0.033 H 
ATOM     20  H10 <0> d           0.529  -0.365   0.885  0.00  0.00     0.033 H 
ATOM     21  H11 <0> d          -1.020  -0.381   0.010  0.00  0.00     0.033 H 
ATOM     22  H12 <0> d          -1.044  -0.368  -2.489  0.00  0.00     0.033 H 
ATOM     23  H13 <0> d          -0.037   1.099  -2.490  0.00  0.00     0.033 H 
ATOM     24  H14 <0> d           0.709  -1.574  -3.761  0.00  0.00     0.033 H 
ATOM     25  H15 <0> d           0.167  -0.123  -4.638  0.00  0.00     0.033 H 
ATOM     26  H16 <0> d           2.640  -0.306  -4.663  0.00  0.00     0.036 H 
ATOM     27  H17 <0> d           2.115   1.135  -3.760  0.00  0.00     0.036 H 
ENDROOT
BRANCH  12  28
ATOM     28  O1  <0> d           4.210   0.033  -2.537  0.00  0.00    -0.395 OA
ATOM     29  H18 <0> d           4.725  -0.241  -3.308  0.00  0.00     0.210 HD
ENDBRANCH  12  28
TORSDOF 1
