REMARK  2 active torsions:
REMARK  status: ('A' for Active; 'I' for Inactive)
REMARK    1  A    between atoms: C1_1  and  C2_2 
REMARK    2  A    between atoms: C1_1  and  O1_6 
ROOT
ATOM      1  C1  <0> d           1.286   1.562  -0.002  0.00  0.00     0.107 C 
ATOM      2  H1  <0> d           1.840   1.243   0.881  0.00  0.00     0.087 H 
ATOM      3  H2  <0> d           1.823   1.252  -0.899  0.00  0.00     0.087 H 
ENDROOT
BRANCH   1   4
ATOM      4  C2  <0> d           1.145   3.085   0.008  0.00  0.00     0.408 C 
ATOM      5  F1  <0> d           0.456   3.482   1.159  0.00  0.00    -0.169 F 
ATOM      6  F2  <0> d           2.415   3.671  -0.001  0.00  0.00    -0.169 F 
ATOM      7  F3  <0> d           0.434   3.495  -1.126  0.00  0.00    -0.169 F 
ENDBRANCH   1   4
BRANCH   1   8
ATOM      8  O1  <0> d          -0.011   0.963   0.007  0.00  0.00    -0.392 OA
ATOM      9  H3  <0> d           0.002  -0.004   0.002  0.00  0.00     0.209 HD
ENDBRANCH   1   8
TORSDOF 2
