REMARK  5 active torsions:
REMARK  status: ('A' for Active; 'I' for Inactive)
REMARK    1  A    between atoms: C1_1  and  C2_2 
REMARK    2  A    between atoms: C2_2  and  O1_3 
REMARK    3  A    between atoms: O1_3  and  C3_4 
REMARK    4  A    between atoms: C3_4  and  C4_6 
REMARK    5  A    between atoms: C6_11  and  C7_12 
ROOT
ATOM      1  C4  <0> d           1.500  -2.373   2.474  0.00  0.00     0.082 A 
ATOM      2  C5  <0> d           2.087  -1.657   3.499  0.00  0.00     0.014 A 
ATOM      3  N1  <0> d           2.612  -2.544   4.359  0.00  0.00    -0.288 N 
ATOM      4  H1  <0> d           3.087  -2.328   5.176  0.00  0.00     0.188 HD
ATOM      5  N2  <0> d           2.358  -3.833   3.877  0.00  0.00    -0.179 NA
ATOM      6  C6  <0> d           1.692  -3.744   2.760  0.00  0.00     0.068 A 
ATOM      7  H7  <0> d           2.117  -0.581   3.592  0.00  0.00     0.115 H 
ENDROOT
BRANCH   1   8
ATOM      8  C3  <0> d           0.801  -1.813   1.304  0.00  0.00     0.296 C 
ATOM      9  O2  <0> d           0.321  -2.555   0.470  0.00  0.00    -0.259 OA
BRANCH   8  10
ATOM     10  O1  <0> d           0.693  -0.477   1.160  0.00  0.00    -0.318 OA
BRANCH  10  11
ATOM     11  C2  <0> d           0.002  -0.004   0.002  0.00  0.00     0.026 C 
ATOM     12  H5  <0> d          -1.020  -0.381   0.010  0.00  0.00     0.074 H 
ATOM     13  H6  <0> d           0.512  -0.356  -0.895  0.00  0.00     0.074 H 
BRANCH  11  14
ATOM     14  C1  <0> d          -0.019   1.526   0.010  0.00  0.00    -0.056 C 
ATOM     15  H2  <0> d           1.004   1.903   0.003  0.00  0.00     0.030 H 
ATOM     16  H3  <0> d          -0.546   1.887  -0.873  0.00  0.00     0.030 H 
ATOM     17  H4  <0> d          -0.529   1.877   0.907  0.00  0.00     0.030 H 
ENDBRANCH  11  14
ENDBRANCH  10  11
ENDBRANCH   8  10
ENDBRANCH   1   8
BRANCH   6  18
ATOM     18  C7  <0> d           1.215  -4.899   1.918  0.00  0.00    -0.033 C 
ATOM     19  H8  <0> d           1.984  -5.163   1.193  0.00  0.00     0.035 H 
ATOM     20  H9  <0> d           1.011  -5.756   2.560  0.00  0.00     0.035 H 
ATOM     21  H10 <0> d           0.303  -4.614   1.393  0.00  0.00     0.035 H 
ENDBRANCH   6  18
TORSDOF 5
