REMARK  1 active torsions:
REMARK  status: ('A' for Active; 'I' for Inactive)
REMARK    1  A    between atoms: C2_2  and  C3_3 
ROOT
ATOM      1  C1  <0> d           0.018  -1.178  -0.004  0.00  0.00    -0.149 C 
ATOM      2  C2  <0> d           0.002  -0.004   0.002  0.00  0.00    -0.083 C 
ATOM      3  H1  <0> d           0.032  -2.228  -0.010  0.00  0.00     0.166 H 
ENDROOT
BRANCH   2   4
ATOM      4  C3  <0> d          -0.017   1.428   0.010  0.00  0.00    -0.009 C 
ATOM      5  C9  <0> d           1.285   2.199   0.002  0.00  0.00    -0.034 C 
ATOM      6  C8  <0> d           1.491   2.834   1.373  0.00  0.00    -0.061 C 
ATOM      7  H11 <0> d           2.111   1.521  -0.212  0.00  0.00     0.041 H 
ATOM      8  H12 <0> d           1.244   2.980  -0.758  0.00  0.00     0.041 H 
ATOM      9  C7  <0> d           0.782   4.173   1.461  0.00  0.00    -0.065 C 
ATOM     10  H9  <0> d           2.557   2.981   1.545  0.00  0.00     0.033 H 
ATOM     11  H10 <0> d           1.094   2.167   2.139  0.00  0.00     0.033 H 
ATOM     12  C6  <0> d          -0.732   4.070   1.411  0.00  0.00    -0.062 C 
ATOM     13  H7  <0> d           1.115   4.798   0.633  0.00  0.00     0.033 H 
ATOM     14  H8  <0> d           1.067   4.657   2.395  0.00  0.00     0.033 H 
ATOM     15  C5  <0> d          -1.198   3.580   0.038  0.00  0.00    -0.049 C 
ATOM     16  H5  <0> d          -1.165   5.051   1.608  0.00  0.00     0.033 H 
ATOM     17  H6  <0> d          -1.069   3.370   2.175  0.00  0.00     0.033 H 
ATOM     18  C4  <0> d          -1.166   2.066   0.030  0.00  0.00    -0.089 C 
ATOM     19  H3  <0> d          -0.532   3.965  -0.734  0.00  0.00     0.038 H 
ATOM     20  H4  <0> d          -2.215   3.925  -0.147  0.00  0.00     0.038 H 
ATOM     21  H2  <0> d          -2.091   1.509   0.040  0.00  0.00     0.078 H 
ENDBRANCH   2   4
TORSDOF 1
