REMARK  5 active torsions:
REMARK  status: ('A' for Active; 'I' for Inactive)
REMARK    1  A    between atoms: C1_1  and  C2_2 
REMARK    2  A    between atoms: C2_2  and  C3_3 
REMARK    3  A    between atoms: C3_3  and  C4_4 
REMARK    4  A    between atoms: C7_7  and  O2_11 
REMARK    5  A    between atoms: C9_9  and  O1_10 
ROOT
ATOM      1  C4  <0> d           0.739  -2.004  -1.265  0.00  0.00    -0.025 A 
ATOM      2  C5  <0> d           1.838  -2.683  -0.773  0.00  0.00    -0.072 A 
ATOM      3  C6  <0> d           1.859  -4.064  -0.779  0.00  0.00    -0.050 A 
ATOM      4  C7  <0> d           0.777  -4.774  -1.280  0.00  0.00     0.068 A 
ATOM      5  C8  <0> d          -0.327  -4.096  -1.773  0.00  0.00    -0.019 A 
ATOM      6  C9  <0> d          -0.348  -2.710  -1.761  0.00  0.00     0.074 A 
ATOM      7  H8  <0> d           2.681  -2.132  -0.383  0.00  0.00     0.084 H 
ATOM      8  H9  <0> d           2.719  -4.592  -0.395  0.00  0.00     0.087 H 
ATOM      9  H10 <0> d          -1.170  -4.647  -2.163  0.00  0.00     0.092 H 
ENDROOT
BRANCH   1  10
ATOM     10  C3  <0> d           0.718  -0.497  -1.257  0.00  0.00    -0.039 C 
ATOM     11  H6  <0> d           0.191  -0.136  -2.140  0.00  0.00     0.040 H 
ATOM     12  H7  <0> d           1.741  -0.120  -1.264  0.00  0.00     0.040 H 
BRANCH  10  13
ATOM     13  C2  <0> d           0.002  -0.004   0.002  0.00  0.00    -0.065 C 
ATOM     14  H4  <0> d           0.529  -0.365   0.885  0.00  0.00     0.032 H 
ATOM     15  H5  <0> d          -1.020  -0.381   0.010  0.00  0.00     0.032 H 
BRANCH  13  16
ATOM     16  C1  <0> d          -0.019   1.526   0.010  0.00  0.00    -0.076 C 
ATOM     17  H1  <0> d           1.004   1.903   0.003  0.00  0.00     0.027 H 
ATOM     18  H2  <0> d          -0.546   1.887  -0.873  0.00  0.00     0.027 H 
ATOM     19  H3  <0> d          -0.529   1.877   0.907  0.00  0.00     0.027 H 
ENDBRANCH  13  16
ENDBRANCH  10  13
ENDBRANCH   1  10
BRANCH   6  20
ATOM     20  O1  <0> d          -1.431  -2.042  -2.240  0.00  0.00    -0.360 OA
ATOM     21  H11 <0> d          -1.383  -1.840  -3.184  0.00  0.00     0.217 HD
ENDBRANCH   6  20
BRANCH   4  22
ATOM     22  O2  <0> d           0.798  -6.133  -1.285  0.00  0.00    -0.361 OA
ATOM     23  H12 <0> d           0.439  -6.535  -0.482  0.00  0.00     0.217 HD
ENDBRANCH   4  22
TORSDOF 5
