REMARK  3 active torsions:
REMARK  status: ('A' for Active; 'I' for Inactive)
REMARK    1  A    between atoms: C1_1  and  C2_2 
REMARK    2  A    between atoms: C2_2  and  C3_4 
REMARK    3  A    between atoms: C2_2  and  O1_9 
ROOT
ATOM      1  C3  <0> d           1.160   2.051   0.002  0.00  0.00     0.011 A 
ATOM      2  C4  <0> d          -0.017   1.378   0.010  0.00  0.00    -0.067 A 
ATOM      3  C5  <0> d           0.002  -0.004   0.002  0.00  0.00    -0.076 A 
ATOM      4  C6  <0> d           1.196  -0.645  -0.013  0.00  0.00    -0.044 A 
ATOM      5  S1  <0> d           2.348   0.719  -0.017  0.00  0.00    -0.104 SA
ATOM      6  H5  <0> d          -0.955   1.913   0.017  0.00  0.00     0.085 H 
ATOM      7  H6  <0> d          -0.921  -0.565   0.008  0.00  0.00     0.084 H 
ATOM      8  H7  <0> d           1.399  -1.706  -0.020  0.00  0.00     0.095 H 
ENDROOT
BRANCH   1   9
ATOM      9  C2  <0> d           1.402   3.539   0.007  0.00  0.00     0.063 C 
ATOM     10  H1  <0> d           0.545   4.045   0.452  0.00  0.00     0.090 H 
BRANCH   9  11
ATOM     11  C1  <0> d           1.594   4.029  -1.429  0.00  0.00    -0.048 C 
ATOM     12  H2  <0> d           0.700   3.809  -2.011  0.00  0.00     0.031 H 
ATOM     13  H3  <0> d           1.769   5.105  -1.425  0.00  0.00     0.031 H 
ATOM     14  H4  <0> d           2.451   3.523  -1.874  0.00  0.00     0.031 H 
ENDBRANCH   9  11
BRANCH   9  15
ATOM     15  O1  <0> d           2.575   3.828   0.770  0.00  0.00    -0.391 OA
ATOM     16  H8  <0> d           3.378   3.409   0.431  0.00  0.00     0.210 HD
ENDBRANCH   9  15
ENDBRANCH   1   9
TORSDOF 3
