REMARK  7 active torsions:
REMARK  status: ('A' for Active; 'I' for Inactive)
REMARK    1  A    between atoms: C1_1  and  C2_2 
REMARK    2  A    between atoms: C2_2  and  C3_3 
REMARK    3  A    between atoms: C2_2  and  C4_4 
REMARK    4  A    between atoms: C2_2  and  C5_6 
REMARK    5  A    between atoms: C4_4  and  O1_5 
REMARK    6  A    between atoms: C5_6  and  O2_7 
REMARK    7  A    between atoms: O2_7  and  C6_8 
REMARK       I    between atoms: C6_8  and  N1_10 
ROOT
ATOM      1  C2  <0> d          -0.019   1.526   0.010  0.00  0.00    -0.004 C 
ENDROOT
BRANCH   1   2
ATOM      2  C1  <0> d          -0.759   2.033  -1.229  0.00  0.00    -0.065 C 
ATOM      3  H1  <0> d          -0.244   1.678  -2.134  0.00  0.00     0.028 H 
ATOM      4  H2  <0> d          -0.774   3.132  -1.223  0.00  0.00     0.028 H 
ATOM      5  H3  <0> d          -1.791   1.652  -1.221  0.00  0.00     0.028 H 
ENDBRANCH   1   2
BRANCH   1   6
ATOM      6  C3  <0> d          -0.735   2.019   1.269  0.00  0.00    -0.065 C 
ATOM      7  H4  <0> d          -0.203   1.655   2.160  0.00  0.00     0.028 H 
ATOM      8  H5  <0> d          -1.767   1.638   1.277  0.00  0.00     0.028 H 
ATOM      9  H6  <0> d          -0.750   3.119   1.275  0.00  0.00     0.028 H 
ENDBRANCH   1   6
BRANCH   1  10
ATOM     10  C4  <0> d           0.002  -0.004   0.002  0.00  0.00     0.025 C 
ATOM     11  H7  <0> d           0.517  -0.359  -0.903  0.00  0.00     0.075 H 
ATOM     12  H8  <0> d           0.534  -0.368   0.893  0.00  0.00     0.075 H 
BRANCH  10  13
ATOM     13  O1  <0> d          -1.339  -0.499   0.012  0.00  0.00    -0.400 OA
ATOM     14  H9  <0> d          -1.525  -1.583   0.008  0.00  0.00     0.209 HD
ENDBRANCH  10  13
ENDBRANCH   1  10
BRANCH   1  15
ATOM     15  C5  <0> d           1.417   2.055  -0.000  0.00  0.00     0.039 C 
ATOM     16  H10 <0> d           1.949   1.691   0.891  0.00  0.00     0.076 H 
ATOM     17  H11 <0> d           1.932   1.700  -0.905  0.00  0.00     0.076 H 
BRANCH  15  18
ATOM     18  O2  <0> d           1.397   3.507   0.008  0.00  0.00    -0.303 OA
BRANCH  18  19
ATOM     19  C6  <0> d           2.588   4.135  -0.000  0.00  0.00     0.358 C 
ATOM     20  O3  <0> d           3.616   3.487  -0.014  0.00  0.00    -0.239 OA
ATOM     21  N1  <0> d           2.640   5.481   0.006  0.00  0.00    -0.346 N 
ATOM     22  H12 <0> d           3.614   5.994  -0.000  0.00  0.00     0.161 HD
ATOM     23  H13 <0> d           1.710   6.068   0.018  0.00  0.00     0.161 HD
ENDBRANCH  18  19
ENDBRANCH  15  18
ENDBRANCH   1  15
TORSDOF 7
