REMARK  1 active torsions:
REMARK  status: ('A' for Active; 'I' for Inactive)
REMARK    1  A    between atoms: N4_9  and  N5_12 
ROOT
ATOM      1  C1  <0> d          -0.480   5.143   0.034  0.00  0.00     0.041 A 
ATOM      2  C2  <0> d          -0.090   3.791   0.023  0.00  0.00     0.100 A 
ATOM      3  C3  <0> d          -1.262   3.019   0.030  0.00  0.00     0.162 A 
ATOM      4  N1  <0> d          -2.302   3.893   0.045  0.00  0.00    -0.261 N 
ATOM      5  H1  <0> d          -3.272   3.649   0.053  0.00  0.00     0.191 HD
ATOM      6  N2  <0> d          -1.783   5.194   0.047  0.00  0.00    -0.184 NA
ATOM      7  N3  <0> d          -1.164   1.680   0.017  0.00  0.00    -0.222 NA
ATOM      8  C4  <0> d          -0.013   1.076   0.008  0.00  0.00     0.086 A 
ATOM      9  N4  <0> d           1.171   1.739   0.000  0.00  0.00    -0.237 N 
ATOM     10  C5  <0> d           1.195   3.092   0.007  0.00  0.00     0.278 A 
ATOM     11  O1  <0> d           2.248   3.706   0.001  0.00  0.00    -0.265 OA
ATOM     12  H2  <0> d           0.186   5.993   0.033  0.00  0.00     0.119 H 
ATOM     13  H3  <0> d           0.002  -0.004   0.002  0.00  0.00     0.146 H 
ENDROOT
BRANCH   9  14
ATOM     14  N5  <0> d           2.344   1.038  -0.015  0.00  0.00    -0.239 NA
ATOM     15  H4  <0> d           2.170   0.044  -0.019  0.00  0.00     0.143 HD
ATOM     16  H5  <0> d           2.916   1.308  -0.801  0.00  0.00     0.143 HD
ENDBRANCH   9  14
TORSDOF 1
