REMARK  3 active torsions:
REMARK  status: ('A' for Active; 'I' for Inactive)
REMARK    1  A    between atoms: C1_1  and  C2_2 
REMARK    2  A    between atoms: C4_4  and  C7_8 
REMARK    3  A    between atoms: C5_5  and  C6_7 
ROOT
ATOM      1  C2  <0> d          -0.016   1.338   0.009  0.00  0.00     0.050 A 
ATOM      2  C3  <0> d           1.245   1.795  -0.000  0.00  0.00    -0.036 A 
ATOM      3  C4  <0> d           2.107   0.604  -0.015  0.00  0.00     0.072 A 
ATOM      4  C5  <0> d           1.256  -0.464  -0.012  0.00  0.00     0.066 A 
ATOM      5  O1  <0> d           0.002  -0.004   0.002  0.00  0.00    -0.319 OA
ATOM      6  H4  <0> d           1.563   2.827   0.002  0.00  0.00     0.089 H 
ENDROOT
BRANCH   1   7
ATOM      7  C1  <0> d          -1.256   2.195   0.020  0.00  0.00    -0.031 C 
ATOM      8  H1  <0> d          -2.139   1.556   0.021  0.00  0.00     0.036 H 
ATOM      9  H2  <0> d          -1.258   2.820   0.913  0.00  0.00     0.036 H 
ATOM     10  H3  <0> d          -1.267   2.829  -0.867  0.00  0.00     0.036 H 
ENDBRANCH   1   7
BRANCH   4  11
ATOM     11  C6  <0> d           1.663  -1.915  -0.024  0.00  0.00    -0.030 C 
ATOM     12  H5  <0> d           0.772  -2.543  -0.018  0.00  0.00     0.036 H 
ATOM     13  H6  <0> d           2.247  -2.122  -0.921  0.00  0.00     0.036 H 
ATOM     14  H7  <0> d           2.265  -2.131   0.859  0.00  0.00     0.036 H 
ENDBRANCH   4  11
BRANCH   3  15
ATOM     15  C7  <0> d           3.579   0.569  -0.028  0.00  0.00     0.211 C 
ATOM     16  O2  <0> d           4.162  -0.497  -0.039  0.00  0.00    -0.644 OA
ATOM     17  O3  <0> d           4.279   1.721  -0.029  0.00  0.00    -0.644 OA
ENDBRANCH   3  15
TORSDOF 3
