REMARK  1 active torsions:
REMARK  status: ('A' for Active; 'I' for Inactive)
REMARK    1  A    between atoms: C3_5  and  C4_7 
ROOT
ATOM      1  C1  <0> d           2.465   5.006   0.005  0.00  0.00     0.023 A 
ATOM      2  C2  <0> d           1.272   5.720   0.021  0.00  0.00     0.041 A 
ATOM      3  N1  <0> d           0.124   5.061   0.028  0.00  0.00    -0.159 NA
ATOM      4  N2  <0> d           0.111   3.773   0.021  0.00  0.00    -0.123 NA
ATOM      5  C3  <0> d           1.238   3.073   0.007  0.00  0.00     0.248 A 
ATOM      6  N3  <0> d           2.416   3.684   0.004  0.00  0.00    -0.233 NA
ATOM      7  H1  <0> d           3.414   5.521  -0.001  0.00  0.00     0.117 H 
ATOM      8  H2  <0> d           1.282   6.799   0.026  0.00  0.00     0.119 H 
ENDROOT
BRANCH   5   9
ATOM      9  C4  <0> d           1.180   1.590  -0.001  0.00  0.00     0.250 C 
ATOM     10  O1  <0> d           2.207   0.943  -0.014  0.00  0.00    -0.642 OA
ATOM     11  O2  <0> d          -0.011   0.963   0.007  0.00  0.00    -0.642 OA
ENDBRANCH   5   9
TORSDOF 1
