REMARK  3 active torsions:
REMARK  status: ('A' for Active; 'I' for Inactive)
REMARK    1  A    between atoms: C1_1  and  C2_2 
REMARK    2  A    between atoms: C5_5  and  O1_8 
REMARK    3  A    between atoms: O1_8  and  C7_9 
ROOT
ATOM      1  C2  <0> d          -0.742   1.585  -1.213  0.00  0.00    -0.042 A 
ATOM      2  C3  <0> d          -2.112   1.800  -1.172  0.00  0.00    -0.036 A 
ATOM      3  C4  <0> d          -2.743   2.260  -2.319  0.00  0.00     0.160 A 
ATOM      4  C5  <0> d          -1.982   2.489  -3.464  0.00  0.00     0.201 A 
ATOM      5  N1  <0> d          -0.679   2.271  -3.459  0.00  0.00    -0.234 NA
ATOM      6  C6  <0> d          -0.052   1.839  -2.381  0.00  0.00     0.011 A 
ATOM      7  O2  <0> d          -4.085   2.485  -2.326  0.00  0.00    -0.187 OA
ATOM      8  H4  <0> d          -2.674   1.613  -0.269  0.00  0.00     0.089 H 
ATOM      9  H5  <0> d           1.015   1.677  -2.416  0.00  0.00     0.115 H 
ENDROOT
BRANCH   4  10
ATOM     10  O1  <0> d          -2.586   2.940  -4.594  0.00  0.00    -0.337 OA
BRANCH  10  11
ATOM     11  C7  <0> d          -1.750   3.155  -5.733  0.00  0.00     0.012 C 
ATOM     12  H6  <0> d          -1.268   2.218  -6.012  0.00  0.00     0.067 H 
ATOM     13  H7  <0> d          -2.357   3.514  -6.565  0.00  0.00     0.067 H 
ATOM     14  H8  <0> d          -0.990   3.897  -5.491  0.00  0.00     0.067 H 
ENDBRANCH  10  11
ENDBRANCH   4  10
BRANCH   1  15
ATOM     15  C1  <0> d          -0.013   1.086   0.008  0.00  0.00    -0.050 C 
ATOM     16  H1  <0> d           0.002  -0.004   0.002  0.00  0.00     0.033 H 
ATOM     17  H2  <0> d           1.010   1.463   0.000  0.00  0.00     0.033 H 
ATOM     18  H3  <0> d          -0.523   1.437   0.905  0.00  0.00     0.033 H 
ENDBRANCH   1  15
TORSDOF 3
