REMARK  1 active torsions:
REMARK  status: ('A' for Active; 'I' for Inactive)
REMARK    1  A    between atoms: C3_3  and  C5_5 
ROOT
ATOM      1  C1  <0> d           3.142   2.087  -1.004  0.00  0.00    -0.063 C 
ATOM      2  C2  <0> d           2.531   1.080  -0.016  0.00  0.00    -0.052 C 
ATOM      3  C3  <0> d           1.280   1.975   0.000  0.00  0.00     0.030 C 
ATOM      4  C4  <0> d           1.702   2.456  -1.398  0.00  0.00    -0.052 C 
ATOM      5  H1  <0> d           3.684   2.900  -0.520  0.00  0.00     0.033 H 
ATOM      6  H2  <0> d           3.709   1.620  -1.810  0.00  0.00     0.033 H 
ATOM      7  H3  <0> d           3.050   1.037   0.941  0.00  0.00     0.034 H 
ATOM      8  H4  <0> d           2.356   0.095  -0.449  0.00  0.00     0.034 H 
ATOM      9  H5  <0> d           1.313   2.756   0.760  0.00  0.00     0.056 H 
ATOM     10  H6  <0> d           1.302   1.847  -2.208  0.00  0.00     0.034 H 
ATOM     11  H7  <0> d           1.553   3.524  -1.556  0.00  0.00     0.034 H 
ENDROOT
BRANCH   3  12
ATOM     12  C5  <0> d          -0.014   1.204   0.009  0.00  0.00     0.177 C 
ATOM     13  O1  <0> d           0.002  -0.004   0.002  0.00  0.00    -0.648 OA
ATOM     14  O2  <0> d          -1.186   1.859   0.018  0.00  0.00    -0.648 OA
ENDBRANCH   3  12
TORSDOF 1
