REMARK  2 active torsions:
REMARK  status: ('A' for Active; 'I' for Inactive)
REMARK    1  A    between atoms: N3_5  and  C3_6 
REMARK    2  A    between atoms: C4_8  and  N7_11 
ROOT
ATOM      1  C3  <0> d          -1.097  -0.860   0.008  0.00  0.00     0.745 A 
ATOM      2  N4  <0> d          -2.360  -0.495   0.017  0.00  0.00     0.131 NA
ATOM      3  C4  <0> d          -3.142  -1.579   0.021  0.00  0.00     0.753 A 
ATOM      4  N5  <0> d          -2.385  -2.650   0.015  0.00  0.00     0.034 NA
ATOM      5  N6  <0> d          -1.052  -2.207   0.001  0.00  0.00    -0.090 N 
ATOM      6  H5  <0> d          -0.256  -2.761  -0.011  0.00  0.00     0.208 HD
ENDROOT
BRANCH   1   7
ATOM      7  N3  <0> d           0.002  -0.004   0.002  0.00  0.00    -0.129 N 
ATOM      8  C1  <0> d          -0.016   1.360   0.009  0.00  0.00     0.110 A 
ATOM      9  N1  <0> d           1.225   1.763  -0.000  0.00  0.00    -0.143 NA
ATOM     10  H1  <0> d          -0.894   1.989   0.025  0.00  0.00     0.148 H 
ATOM     11  N2  <0> d           2.014   0.749  -0.013  0.00  0.00    -0.143 NA
ATOM     12  C2  <0> d           1.320  -0.356  -0.013  0.00  0.00     0.110 A 
ATOM     13  H2  <0> d           1.715  -1.361  -0.022  0.00  0.00     0.148 H 
ENDBRANCH   1   7
BRANCH   3  14
ATOM     14  N7  <0> d          -4.538  -1.573   0.031  0.00  0.00    -0.229 N 
ATOM     15  H3  <0> d          -5.019  -0.731   0.035  0.00  0.00     0.174 HD
ATOM     16  H4  <0> d          -5.027  -2.411   0.033  0.00  0.00     0.174 HD
ENDBRANCH   3  14
TORSDOF 2
