REMARK  0 active torsions:
REMARK  status: ('A' for Active; 'I' for Inactive)
ROOT
ATOM      1  C1  <0> d           2.213   0.756  -0.015  0.00  0.00    -0.009 A 
ATOM      2  C2  <0> d           1.684   2.008  -0.003  0.00  0.00    -0.024 A 
ATOM      3  S1  <0> d          -0.021   1.704   0.011  0.00  0.00    -0.024 SA
ATOM      4  N1  <0> d           0.002  -0.004   0.002  0.00  0.00    -0.294 N 
ATOM      5  H1  <0> d          -0.751  -0.616   0.006  0.00  0.00     0.177 HD
ATOM      6  C3  <0> d           1.319  -0.299  -0.012  0.00  0.00     0.251 A 
ATOM      7  O1  <0> d           1.708  -1.457  -0.022  0.00  0.00    -0.268 OA
ATOM      8  H2  <0> d           3.280   0.593  -0.026  0.00  0.00     0.092 H 
ATOM      9  H3  <0> d           2.199   2.958  -0.004  0.00  0.00     0.097 H 
ENDROOT
TORSDOF 0
