REMARK  2 active torsions:
REMARK  status: ('A' for Active; 'I' for Inactive)
REMARK    1  A    between atoms: C3_3  and  C6_7 
REMARK    2  A    between atoms: C6_7  and  O1_8 
ROOT
ATOM      1  C1  <0> d          -0.017   1.378   0.010  0.00  0.00    -0.065 A 
ATOM      2  C2  <0> d           1.185   2.070   0.002  0.00  0.00    -0.072 A 
ATOM      3  C3  <0> d           2.365   1.343  -0.013  0.00  0.00    -0.017 A 
ATOM      4  C4  <0> d           2.305  -0.038  -0.020  0.00  0.00     0.010 A 
ATOM      5  N1  <0> d           1.144  -0.663  -0.013  0.00  0.00    -0.273 NA
ATOM      6  C5  <0> d           0.002  -0.004   0.002  0.00  0.00     0.002 A 
ATOM      7  H1  <0> d          -0.955   1.912   0.026  0.00  0.00     0.085 H 
ATOM      8  H2  <0> d           1.201   3.150   0.007  0.00  0.00     0.084 H 
ATOM      9  H3  <0> d           3.220  -0.612  -0.032  0.00  0.00     0.115 H 
ATOM     10  H4  <0> d          -0.929  -0.550   0.008  0.00  0.00     0.114 H 
ENDROOT
BRANCH   3  11
ATOM     11  C6  <0> d           3.696   2.049  -0.023  0.00  0.00     0.042 C 
ATOM     12  H5  <0> d           4.429   1.435  -0.547  0.00  0.00     0.081 H 
ATOM     13  H6  <0> d           3.595   3.008  -0.531  0.00  0.00     0.081 H 
BRANCH  11  14
ATOM     14  O1  <0> d           4.130   2.265   1.321  0.00  0.00    -0.396 OA
ATOM     15  H7  <0> d           4.983   2.717   1.392  0.00  0.00     0.209 HD
ENDBRANCH  11  14
ENDBRANCH   3  11
TORSDOF 2
