REMARK  5 active torsions:
REMARK  status: ('A' for Active; 'I' for Inactive)
REMARK    1  A    between atoms: C1_1  and  C2_2 
REMARK    2  A    between atoms: C2_2  and  C8_13 
REMARK    3  A    between atoms: C4_5  and  C5_8 
REMARK    4  A    between atoms: C5_8  and  C6_10 
REMARK    5  A    between atoms: C5_8  and  O3_12 
ROOT
ATOM      1  C2  <0> d          -0.729   1.579   1.267  0.00  0.00     0.157 C 
ATOM      2  O1  <0> d          -0.773   3.016   1.266  0.00  0.00    -0.353 OA
ATOM      3  C3  <0> d          -2.051   3.348   1.859  0.00  0.00     0.050 C 
ATOM      4  C4  <0> d          -2.955   2.215   1.312  0.00  0.00     0.090 C 
ATOM      5  H1  <0> d          -3.310   2.454   0.310  0.00  0.00     0.091 H 
ATOM      6  O2  <0> d          -2.072   1.079   1.284  0.00  0.00    -0.346 OA
ATOM      7  H6  <0> d          -1.997   3.313   2.947  0.00  0.00     0.078 H 
ATOM      8  H7  <0> d          -2.398   4.323   1.518  0.00  0.00     0.078 H 
ENDROOT
BRANCH   4   9
ATOM      9  C5  <0> d          -4.134   1.962   2.254  0.00  0.00     0.078 C 
ATOM     10  H2  <0> d          -4.776   2.843   2.278  0.00  0.00     0.093 H 
BRANCH   9  11
ATOM     11  C6  <0> d          -4.925   0.777   1.763  0.00  0.00    -0.082 C 
ATOM     12  C7  <0> d          -5.150  -0.237   2.561  0.00  0.00    -0.122 C 
ATOM     13  H9  <0> d          -4.768  -0.224   3.571  0.00  0.00     0.066 H 
ATOM     14  H10 <0> d          -5.716  -1.086   2.208  0.00  0.00     0.066 H 
ATOM     15  H8  <0> d          -5.307   0.764   0.752  0.00  0.00     0.079 H 
ENDBRANCH   9  11
BRANCH   9  16
ATOM     16  O3  <0> d          -3.644   1.695   3.570  0.00  0.00    -0.389 OA
ATOM     17  H11 <0> d          -3.065   0.922   3.624  0.00  0.00     0.210 HD
ENDBRANCH   9  16
ENDBRANCH   4   9
BRANCH   1  18
ATOM     18  C1  <0> d          -0.013   1.086   0.008  0.00  0.00    -0.026 C 
ATOM     19  H3  <0> d           0.002  -0.004   0.002  0.00  0.00     0.035 H 
ATOM     20  H4  <0> d           1.010   1.463   0.000  0.00  0.00     0.035 H 
ATOM     21  H5  <0> d          -0.540   1.447  -0.875  0.00  0.00     0.035 H 
ENDBRANCH   1  18
BRANCH   1  22
ATOM     22  C8  <0> d           0.018   1.089   2.509  0.00  0.00    -0.026 C 
ATOM     23  H12 <0> d           1.041   1.466   2.490  0.00  0.00     0.035 H 
ATOM     24  H13 <0> d          -0.487   1.452   3.404  0.00  0.00     0.035 H 
ATOM     25  H14 <0> d           0.033  -0.001   2.517  0.00  0.00     0.035 H 
ENDBRANCH   1  22
TORSDOF 5
