REMARK  1 active torsions:
REMARK  status: ('A' for Active; 'I' for Inactive)
REMARK    1  A    between atoms: C6_9  and  O1_10 
ROOT
ATOM      1  C1  <0> d          -0.018   1.504   0.010  0.00  0.00    -0.064 C 
ATOM      2  C2  <0> d           1.320   2.200   0.001  0.00  0.00    -0.061 C 
ATOM      3  C3  <0> d           1.990   2.091  -1.377  0.00  0.00    -0.035 C 
ATOM      4  C4  <0> d           2.619   0.711  -1.458  0.00  0.00     0.020 A 
ATOM      5  C5  <0> d           1.929  -0.444  -1.457  0.00  0.00     0.038 A 
ATOM      6  N1  <0> d           2.807  -1.458  -1.540  0.00  0.00    -0.279 N 
ATOM      7  N2  <0> d           4.095  -0.902  -1.594  0.00  0.00    -0.149 NA
ATOM      8  C6  <0> d           3.981   0.406  -1.544  0.00  0.00     0.189 A 
ATOM      9  C7  <0> d           0.415  -0.544  -1.376  0.00  0.00    -0.025 C 
ATOM     10  C8  <0> d           0.002  -0.004   0.002  0.00  0.00    -0.060 C 
ATOM     11  H2  <0> d          -0.561   1.829   0.898  0.00  0.00     0.033 H 
ATOM     12  H3  <0> d          -0.578   1.839  -0.863  0.00  0.00     0.033 H 
ATOM     13  H4  <0> d           1.178   3.252   0.248  0.00  0.00     0.033 H 
ATOM     14  H5  <0> d           1.966   1.742   0.750  0.00  0.00     0.033 H 
ATOM     15  H6  <0> d           1.244   2.207  -2.163  0.00  0.00     0.040 H 
ATOM     16  H7  <0> d           2.760   2.857  -1.477  0.00  0.00     0.040 H 
ATOM     17  H8  <0> d           2.591  -2.403  -1.559  0.00  0.00     0.189 HD
ATOM     18  H9  <0> d          -0.040   0.058  -2.163  0.00  0.00     0.042 H 
ATOM     19  H10 <0> d           0.104  -1.584  -1.476  0.00  0.00     0.042 H 
ATOM     20  H11 <0> d           0.711  -0.356   0.751  0.00  0.00     0.033 H 
ATOM     21  H12 <0> d          -0.992  -0.377   0.249  0.00  0.00     0.033 H 
ENDROOT
BRANCH   8  22
ATOM     22  O1  <0> d           5.003   1.303  -1.571  0.00  0.00    -0.343 OA
ATOM     23  H1  <0> d           5.348   1.533  -0.697  0.00  0.00     0.219 HD
ENDBRANCH   8  22
TORSDOF 1
