REMARK  2 active torsions:
REMARK  status: ('A' for Active; 'I' for Inactive)
REMARK    1  A    between atoms: C1_1  and  C2_2 
REMARK    2  A    between atoms: C6_7  and  C7_8 
ROOT
ATOM      1  C2  <0> d          -0.233  -0.028   0.036  0.00  0.00    -0.042 A 
ATOM      2  C3  <0> d          -0.321  -0.731  -1.153  0.00  0.00    -0.059 A 
ATOM      3  C4  <0> d          -0.059  -2.089  -1.158  0.00  0.00     0.002 A 
ATOM      4  N1  <0> d           0.273  -2.724  -0.050  0.00  0.00    -0.272 NA
ATOM      5  C5  <0> d           0.371  -2.101   1.106  0.00  0.00     0.019 A 
ATOM      6  C6  <0> d           0.128  -0.728   1.195  0.00  0.00     0.064 A 
ATOM      7  H4  <0> d          -0.593  -0.224  -2.067  0.00  0.00     0.086 H 
ATOM      8  H5  <0> d          -0.128  -2.639  -2.085  0.00  0.00     0.114 H 
ATOM      9  H6  <0> d           0.646  -2.655   1.991  0.00  0.00     0.116 H 
ENDROOT
BRANCH   1  10
ATOM     10  C1  <0> d          -0.510   1.452   0.082  0.00  0.00    -0.050 C 
ATOM     11  H1  <0> d           0.430   2.001   0.016  0.00  0.00     0.033 H 
ATOM     12  H2  <0> d          -1.151   1.728  -0.756  0.00  0.00     0.033 H 
ATOM     13  H3  <0> d          -1.010   1.700   1.018  0.00  0.00     0.033 H 
ENDBRANCH   1  10
BRANCH   6  14
ATOM     14  C7  <0> d           0.244  -0.028   2.489  0.00  0.00     0.211 C 
ATOM     15  O1  <0> d           0.440  -0.665   3.514  0.00  0.00    -0.644 OA
ATOM     16  O2  <0> d           0.143   1.190   2.536  0.00  0.00    -0.644 OA
ENDBRANCH   6  14
TORSDOF 2
