REMARK  1 active torsions:
REMARK  status: ('A' for Active; 'I' for Inactive)
REMARK    1  A    between atoms: C2_2  and  C4_8 
ROOT
ATOM      1  C1  <0> d          -0.013   1.076   0.008  0.00  0.00     0.015 A 
ATOM      2  C2  <0> d           1.091   1.910   0.002  0.00  0.00     0.099 A 
ATOM      3  C3  <0> d           0.607   3.240   0.013  0.00  0.00     0.164 A 
ATOM      4  N1  <0> d          -0.697   3.193   0.025  0.00  0.00    -0.162 NA
ATOM      5  H1  <0> d          -2.022   1.542   0.019  0.00  0.00     0.188 HD
ATOM      6  N2  <0> d          -1.104   1.855   0.017  0.00  0.00    -0.287 N 
ATOM      7 Cl1  <0> d           1.577   4.679   0.012  0.00  0.00    -0.059 Cl
ATOM      8  H2  <0> d           0.002  -0.004   0.002  0.00  0.00     0.115 H 
ENDROOT
BRANCH   2   9
ATOM      9  C4  <0> d           2.500   1.493  -0.013  0.00  0.00     0.214 C 
ATOM     10  O1  <0> d           2.787   0.303  -0.021  0.00  0.00    -0.644 OA
ATOM     11  O2  <0> d           3.388   2.336  -0.017  0.00  0.00    -0.644 OA
ENDBRANCH   2   9
TORSDOF 1
