REMARK  2 active torsions:
REMARK  status: ('A' for Active; 'I' for Inactive)
REMARK    1  A    between atoms: C1_1  and  C2_2 
REMARK    2  A    between atoms: C2_2  and  N1_3 
ROOT
ATOM      1  N1  <0> d           0.688  -0.476  -1.203  0.00  0.00    -0.261 N 
ATOM      2  C3  <0> d           1.738  -1.319  -1.255  0.00  0.00     0.086 A 
ATOM      3  N2  <0> d           2.061  -1.496  -2.507  0.00  0.00    -0.212 NA
ATOM      4  C4  <0> d           1.240  -0.783  -3.294  0.00  0.00     0.251 A 
ATOM      5  N3  <0> d           0.376  -0.145  -2.532  0.00  0.00    -0.140 NA
ATOM      6  C5  <0> d           1.292  -0.729  -4.724  0.00  0.00     0.142 C 
ATOM      7  N4  <0> d           1.333  -0.687  -5.858  0.00  0.00    -0.188 NA
ATOM      8  H6  <0> d           2.229  -1.770  -0.406  0.00  0.00     0.146 H 
ENDROOT
BRANCH   1   9
ATOM      9  C2  <0> d           0.002  -0.004   0.002  0.00  0.00     0.015 C 
ATOM     10  H4  <0> d           0.529  -0.365   0.885  0.00  0.00     0.066 H 
ATOM     11  H5  <0> d          -1.020  -0.381   0.010  0.00  0.00     0.066 H 
BRANCH   9  12
ATOM     12  C1  <0> d          -0.019   1.526   0.010  0.00  0.00    -0.059 C 
ATOM     13  H1  <0> d           1.004   1.903   0.003  0.00  0.00     0.029 H 
ATOM     14  H2  <0> d          -0.546   1.887  -0.873  0.00  0.00     0.029 H 
ATOM     15  H3  <0> d          -0.529   1.877   0.907  0.00  0.00     0.029 H 
ENDBRANCH   9  12
ENDBRANCH   1   9
TORSDOF 2
