REMARK  2 active torsions:
REMARK  status: ('A' for Active; 'I' for Inactive)
REMARK    1  A    between atoms: C1_1  and  C2_2 
REMARK    2  A    between atoms: C5_8  and  C6_10 
ROOT
ATOM      1  C2  <0> d          -2.679   2.198   2.284  0.00  0.00     0.038 A 
ATOM      2  C3  <0> d          -2.015   2.442   3.448  0.00  0.00     0.006 A 
ATOM      3  C4  <0> d          -0.621   2.231   3.486  0.00  0.00     0.248 A 
ATOM      4  O1  <0> d           0.013   2.438   4.508  0.00  0.00    -0.268 OA
ATOM      5  N1  <0> d          -0.003   1.795   2.368  0.00  0.00    -0.312 N 
ATOM      6  H1  <0> d           0.955   1.643   2.370  0.00  0.00     0.170 HD
ATOM      7  C5  <0> d          -0.718   1.572   1.248  0.00  0.00     0.103 A 
ATOM      8  N2  <0> d          -2.008   1.772   1.211  0.00  0.00    -0.241 NA
ATOM      9  H5  <0> d          -2.544   2.791   4.322  0.00  0.00     0.095 H 
ENDROOT
BRANCH   1  10
ATOM     10  C1  <0> d          -4.169   2.413   2.207  0.00  0.00    -0.035 C 
ATOM     11  H2  <0> d          -4.372   3.437   1.895  0.00  0.00     0.035 H 
ATOM     12  H3  <0> d          -4.599   1.720   1.483  0.00  0.00     0.035 H 
ATOM     13  H4  <0> d          -4.613   2.236   3.186  0.00  0.00     0.035 H 
ENDBRANCH   1  10
BRANCH   7  14
ATOM     14  C6  <0> d          -0.013   1.086   0.008  0.00  0.00    -0.021 C 
ATOM     15  H6  <0> d           0.002  -0.004   0.002  0.00  0.00     0.037 H 
ATOM     16  H7  <0> d           1.010   1.463   0.000  0.00  0.00     0.037 H 
ATOM     17  H8  <0> d          -0.540   1.447  -0.875  0.00  0.00     0.037 H 
ENDBRANCH   7  14
TORSDOF 2
