REMARK  1 active torsions:
REMARK  status: ('A' for Active; 'I' for Inactive)
REMARK    1  A    between atoms: C4_4  and  C7_7 
ROOT
ATOM      1  C1  <0> d           1.177   1.782   0.000  0.00  0.00    -0.083 A 
ATOM      2  C2  <0> d          -0.013   1.076   0.008  0.00  0.00    -0.082 A 
ATOM      3  C3  <0> d          -1.218   1.748   0.017  0.00  0.00    -0.072 A 
ATOM      4  C4  <0> d          -1.235   3.141   0.030  0.00  0.00    -0.023 A 
ATOM      5  C5  <0> d          -0.035   3.848   0.023  0.00  0.00    -0.072 A 
ATOM      6  C6  <0> d           1.165   3.166   0.008  0.00  0.00    -0.082 A 
ATOM      7  H1  <0> d           2.117   1.252  -0.011  0.00  0.00     0.083 H 
ATOM      8  H2  <0> d           0.002  -0.004   0.002  0.00  0.00     0.083 H 
ATOM      9  H3  <0> d          -2.146   1.196   0.019  0.00  0.00     0.084 H 
ATOM     10  H4  <0> d          -0.043   4.928   0.029  0.00  0.00     0.084 H 
ATOM     11  H5  <0> d           2.096   3.712   0.002  0.00  0.00     0.083 H 
ENDROOT
BRANCH   4  12
ATOM     12  C7  <0> d          -2.528   3.870   0.046  0.00  0.00     0.018 A 
ATOM     13  C9  <0> d          -3.791   3.349   0.055  0.00  0.00     0.056 A 
ATOM     14  O1  <0> d          -4.629   4.394   0.069  0.00  0.00    -0.225 OA
ATOM     15  H7  <0> d          -4.060   2.303   0.051  0.00  0.00     0.128 H 
ATOM     16  N1  <0> d          -4.034   5.447   0.069  0.00  0.00    -0.141 NA
ATOM     17  C8  <0> d          -2.745   5.277   0.062  0.00  0.00     0.041 A 
ATOM     18  H6  <0> d          -1.990   6.048   0.066  0.00  0.00     0.119 H 
ENDBRANCH   4  12
TORSDOF 1
