REMARK  3 active torsions:
REMARK  status: ('A' for Active; 'I' for Inactive)
REMARK    1  A    between atoms: C1_1  and  C2_2 
REMARK    2  A    between atoms: C2_2  and  C3_3 
REMARK    3  A    between atoms: C3_3  and  C4_4 
ROOT
ATOM      1  C4  <0> d          -1.433  -0.534   0.013  0.00  0.00     0.131 C 
ATOM      2  O1  <0> d          -2.073  -0.096   1.203  0.00  0.00    -0.358 OA
ATOM      3  C5  <0> d          -3.469  -0.394   1.284  0.00  0.00     0.037 C 
ATOM      4  C6  <0> d          -3.634  -1.794   1.836  0.00  0.00    -0.082 C 
ATOM      5  C7  <0> d          -3.263  -2.814   1.111  0.00  0.00    -0.082 C 
ATOM      6  C8  <0> d          -2.677  -2.573  -0.263  0.00  0.00     0.037 C 
ATOM      7  O2  <0> d          -1.400  -1.948  -0.112  0.00  0.00    -0.358 OA
ATOM      8  H8  <0> d          -1.966  -0.118  -0.843  0.00  0.00     0.129 H 
ATOM      9  H9  <0> d          -3.914  -0.338   0.291  0.00  0.00     0.080 H 
ATOM     10  H10 <0> d          -3.958   0.320   1.947  0.00  0.00     0.080 H 
ATOM     11  H11 <0> d          -4.054  -1.946   2.819  0.00  0.00     0.079 H 
ATOM     12  H12 <0> d          -3.373  -3.820   1.488  0.00  0.00     0.079 H 
ATOM     13  H13 <0> d          -3.338  -1.920  -0.833  0.00  0.00     0.080 H 
ATOM     14  H14 <0> d          -2.560  -3.522  -0.786  0.00  0.00     0.080 H 
ENDROOT
BRANCH   1  15
ATOM     15  C3  <0> d           0.002  -0.004   0.002  0.00  0.00    -0.019 C 
ATOM     16  H6  <0> d           0.512  -0.356  -0.895  0.00  0.00     0.040 H 
ATOM     17  H7  <0> d           0.529  -0.365   0.885  0.00  0.00     0.040 H 
BRANCH  15  18
ATOM     18  C2  <0> d          -0.019   1.526   0.010  0.00  0.00    -0.064 C 
ATOM     19  H4  <0> d          -0.546   1.887  -0.873  0.00  0.00     0.032 H 
ATOM     20  H5  <0> d          -0.529   1.877   0.907  0.00  0.00     0.032 H 
BRANCH  18  21
ATOM     21  C1  <0> d           1.417   2.055  -0.000  0.00  0.00    -0.076 C 
ATOM     22  H1  <0> d           1.944   1.694   0.883  0.00  0.00     0.027 H 
ATOM     23  H2  <0> d           1.927   1.704  -0.897  0.00  0.00     0.027 H 
ATOM     24  H3  <0> d           1.402   3.145   0.006  0.00  0.00     0.027 H 
ENDBRANCH  18  21
ENDBRANCH  15  18
ENDBRANCH   1  15
TORSDOF 3
