REMARK  5 active torsions:
REMARK  status: ('A' for Active; 'I' for Inactive)
REMARK    1  A    between atoms: C1_1  and  C2_2 
REMARK    2  A    between atoms: C2_2  and  C3_3 
REMARK    3  A    between atoms: C2_2  and  C4_4 
REMARK    4  A    between atoms: C2_2  and  C5_5 
REMARK    5  A    between atoms: C9_9  and  C11_11 
ROOT
ATOM      1  C11 <0> d           4.040  -0.234  -2.851  0.00  0.00    -0.078 C 
ATOM      2  C12 <0> d           5.160   0.060  -3.047  0.00  0.00    -0.149 C 
ATOM      3  H14 <0> d           6.161   0.323  -3.223  0.00  0.00     0.166 H 
ENDROOT
BRANCH   1   4
ATOM      4  C9  <0> d           2.675  -0.592  -2.612  0.00  0.00     0.017 A 
ATOM      5  C8  <0> d           1.990  -1.393  -3.526  0.00  0.00    -0.065 A 
ATOM      6  C7  <0> d           0.674  -1.735  -3.289  0.00  0.00    -0.081 A 
ATOM      7  H12 <0> d           2.489  -1.746  -4.416  0.00  0.00     0.085 H 
ATOM      8  C6  <0> d           0.034  -1.285  -2.148  0.00  0.00    -0.076 A 
ATOM      9  H11 <0> d           0.143  -2.356  -3.995  0.00  0.00     0.083 H 
ATOM     10  C5  <0> d           0.707  -0.490  -1.238  0.00  0.00    -0.049 A 
ATOM     11  H10 <0> d          -0.996  -1.555  -1.968  0.00  0.00     0.084 H 
ATOM     12  C10 <0> d           2.021  -0.137  -1.465  0.00  0.00    -0.058 A 
ATOM     13  H13 <0> d           2.545   0.487  -0.756  0.00  0.00     0.086 H 
BRANCH  10  14
ATOM     14  C2  <0> d           0.002  -0.004   0.002  0.00  0.00    -0.024 C 
BRANCH  14  15
ATOM     15  C1  <0> d          -0.019   1.526   0.010  0.00  0.00    -0.066 C 
ATOM     16  H1  <0> d           1.004   1.903   0.003  0.00  0.00     0.028 H 
ATOM     17  H2  <0> d          -0.546   1.887  -0.873  0.00  0.00     0.028 H 
ATOM     18  H3  <0> d          -0.529   1.877   0.907  0.00  0.00     0.028 H 
ENDBRANCH  14  15
BRANCH  14  19
ATOM     19  C3  <0> d           0.742  -0.511   1.242  0.00  0.00    -0.066 C 
ATOM     20  H4  <0> d           0.232  -0.159   2.138  0.00  0.00     0.028 H 
ATOM     21  H5  <0> d           0.757  -1.601   1.236  0.00  0.00     0.028 H 
ATOM     22  H6  <0> d           1.765  -0.134   1.234  0.00  0.00     0.028 H 
ENDBRANCH  14  19
BRANCH  14  23
ATOM     23  C4  <0> d          -1.433  -0.534   0.013  0.00  0.00    -0.066 C 
ATOM     24  H7  <0> d          -1.960  -0.173  -0.870  0.00  0.00     0.028 H 
ATOM     25  H8  <0> d          -1.419  -1.623   0.007  0.00  0.00     0.028 H 
ATOM     26  H9  <0> d          -1.944  -0.182   0.910  0.00  0.00     0.028 H 
ENDBRANCH  14  23
ENDBRANCH  10  14
ENDBRANCH   1   4
TORSDOF 5
