REMARK  4 active torsions:
REMARK  status: ('A' for Active; 'I' for Inactive)
REMARK    1  A    between atoms: C1_1  and  C2_2 
REMARK    2  A    between atoms: C2_2  and  C3_3 
REMARK    3  A    between atoms: C4_4  and  C8_12 
REMARK    4  A    between atoms: C6_8  and  C7_9 
ROOT
ATOM      1  C3  <0> d           0.707  -0.490  -1.238  0.00  0.00    -0.018 A 
ATOM      2  C4  <0> d           0.149  -0.754  -2.431  0.00  0.00     0.012 A 
ATOM      3  N1  <0> d           1.118  -1.172  -3.296  0.00  0.00    -0.368 N 
ATOM      4  H1  <0> d           0.965  -1.422  -4.221  0.00  0.00     0.165 HD
ATOM      5  C5  <0> d           2.317  -1.187  -2.686  0.00  0.00    -0.006 A 
ATOM      6  C6  <0> d           2.143  -0.763  -1.384  0.00  0.00     0.064 A 
ATOM      7  H7  <0> d           3.254  -1.476  -3.138  0.00  0.00     0.113 H 
ENDROOT
BRANCH   1   8
ATOM      8  C2  <0> d           0.002  -0.004   0.002  0.00  0.00    -0.041 C 
ATOM      9  H5  <0> d           0.529  -0.365   0.885  0.00  0.00     0.039 H 
ATOM     10  H6  <0> d          -1.020  -0.381   0.010  0.00  0.00     0.039 H 
BRANCH   8  11
ATOM     11  C1  <0> d          -0.019   1.526   0.010  0.00  0.00    -0.073 C 
ATOM     12  H2  <0> d           1.004   1.903   0.003  0.00  0.00     0.028 H 
ATOM     13  H3  <0> d          -0.546   1.887  -0.873  0.00  0.00     0.028 H 
ATOM     14  H4  <0> d          -0.529   1.877   0.907  0.00  0.00     0.028 H 
ENDBRANCH   8  11
ENDBRANCH   1   8
BRANCH   6  15
ATOM     15  C7  <0> d           3.180  -0.617  -0.355  0.00  0.00     0.211 C 
ATOM     16  O1  <0> d           4.345  -0.882  -0.619  0.00  0.00    -0.644 OA
ATOM     17  O2  <0> d           2.880  -0.230   0.766  0.00  0.00    -0.644 OA
ENDBRANCH   6  15
BRANCH   2  18
ATOM     18  C8  <0> d          -1.315  -0.613  -2.761  0.00  0.00    -0.037 C 
ATOM     19  H8  <0> d          -1.508   0.394  -3.131  0.00  0.00     0.035 H 
ATOM     20  H9  <0> d          -1.587  -1.340  -3.527  0.00  0.00     0.035 H 
ATOM     21  H10 <0> d          -1.909  -0.791  -1.864  0.00  0.00     0.035 H 
ENDBRANCH   2  18
TORSDOF 4
