REMARK  2 active torsions:
REMARK  status: ('A' for Active; 'I' for Inactive)
REMARK    1  A    between atoms: C5_5  and  N2_8 
REMARK    2  A    between atoms: C6_6  and  N1_7 
ROOT
ATOM      1  C1  <0> d           2.428   0.071  -0.021  0.00  0.00    -0.053 A 
ATOM      2  C2  <0> d           2.472   1.425  -0.014  0.00  0.00    -0.048 A 
ATOM      3  C3  <0> d           1.280   2.173   0.002  0.00  0.00     0.119 A 
ATOM      4  C4  <0> d          -0.018   1.451   0.010  0.00  0.00     0.145 A 
ATOM      5  C5  <0> d           0.002  -0.004   0.002  0.00  0.00     0.086 A 
ATOM      6  C6  <0> d           1.224  -0.646  -0.013  0.00  0.00     0.054 A 
ATOM      7  N3  <0> d          -0.893   2.423   0.019  0.00  0.00    -0.101 NA
ATOM      8  O1  <0> d          -0.305   3.486   0.023  0.00  0.00    -0.106 OA
ATOM      9  N4  <0> d           0.909   3.430   0.011  0.00  0.00    -0.103 NA
ATOM     10  H1  <0> d           3.358  -0.478  -0.033  0.00  0.00     0.087 H 
ATOM     11  H2  <0> d           3.425   1.933  -0.020  0.00  0.00     0.087 H 
ENDROOT
BRANCH   5  12
ATOM     12  N2  <0> d          -1.190  -0.735   0.010  0.00  0.00    -0.395 N 
ATOM     13  H5  <0> d          -2.042  -0.272   0.021  0.00  0.00     0.156 HD
ATOM     14  H6  <0> d          -1.164  -1.705   0.004  0.00  0.00     0.156 HD
ENDBRANCH   5  12
BRANCH   6  15
ATOM     15  N1  <0> d           1.260  -2.047  -0.021  0.00  0.00    -0.397 N 
ATOM     16  H3  <0> d           0.433  -2.554  -0.016  0.00  0.00     0.156 HD
ATOM     17  H4  <0> d           2.113  -2.510  -0.032  0.00  0.00     0.156 HD
ENDBRANCH   6  15
TORSDOF 2
