REMARK  2 active torsions:
REMARK  status: ('A' for Active; 'I' for Inactive)
REMARK    1  A    between atoms: C1_1  and  C2_2 
REMARK    2  A    between atoms: C3_3  and  O3_9 
ROOT
ATOM      1  C2  <0> d           0.002  -0.004   0.002  0.00  0.00     0.047 A 
ATOM      2  C3  <0> d          -1.179  -0.724   0.004  0.00  0.00     0.079 A 
ATOM      3  C4  <0> d          -1.114  -2.135  -0.004  0.00  0.00    -0.029 A 
ATOM      4  C5  <0> d           0.085  -2.749  -0.013  0.00  0.00     0.025 A 
ATOM      5  O1  <0> d           1.225  -2.044  -0.014  0.00  0.00    -0.287 OA
ATOM      6  C6  <0> d           1.217  -0.700  -0.013  0.00  0.00     0.296 A 
ATOM      7  O2  <0> d           2.271  -0.085  -0.020  0.00  0.00    -0.259 OA
ATOM      8  H4  <0> d          -2.022  -2.719  -0.003  0.00  0.00     0.090 H 
ATOM      9  H5  <0> d           0.128  -3.828  -0.019  0.00  0.00     0.123 H 
ENDROOT
BRANCH   1  10
ATOM     10  C1  <0> d          -0.018   1.503   0.010  0.00  0.00    -0.043 C 
ATOM     11  H1  <0> d           1.004   1.880   0.003  0.00  0.00     0.034 H 
ATOM     12  H2  <0> d          -0.545   1.864  -0.873  0.00  0.00     0.034 H 
ATOM     13  H3  <0> d          -0.529   1.854   0.907  0.00  0.00     0.034 H 
ENDBRANCH   1  10
BRANCH   2  14
ATOM     14  O3  <0> d          -2.374  -0.088   0.013  0.00  0.00    -0.360 OA
ATOM     15  H6  <0> d          -3.136  -0.683   0.013  0.00  0.00     0.217 HD
ENDBRANCH   2  14
TORSDOF 2
