REMARK  2 active torsions:
REMARK  status: ('A' for Active; 'I' for Inactive)
REMARK    1  A    between atoms: C2_2  and  C3_3 
REMARK    2  A    between atoms: C8_8  and  C9_9 
ROOT
ATOM      1  C3  <0> d          -2.438   0.967   0.044  0.00  0.00    -0.020 A 
ATOM      2  C4  <0> d          -2.427  -0.422  -0.075  0.00  0.00    -0.072 A 
ATOM      3  C5  <0> d          -3.616  -1.122  -0.093  0.00  0.00    -0.082 A 
ATOM      4  C6  <0> d          -4.827  -0.453  -0.003  0.00  0.00    -0.082 A 
ATOM      5  C7  <0> d          -4.859   0.921   0.109  0.00  0.00    -0.066 A 
ATOM      6  C8  <0> d          -3.668   1.647   0.135  0.00  0.00     0.051 A 
ATOM      7  H4  <0> d          -1.488  -0.951  -0.149  0.00  0.00     0.084 H 
ATOM      8  H5  <0> d          -3.604  -2.198  -0.182  0.00  0.00     0.083 H 
ATOM      9  H6  <0> d          -5.751  -1.012  -0.022  0.00  0.00     0.083 H 
ATOM     10  H7  <0> d          -5.807   1.435   0.178  0.00  0.00     0.085 H 
ENDROOT
BRANCH   1  11
ATOM     11  C2  <0> d          -1.169   1.720   0.068  0.00  0.00    -0.081 C 
ATOM     12  C1  <0> d          -0.012   1.070   0.103  0.00  0.00    -0.120 C 
ATOM     13  H1  <0> d           0.934   1.631   0.122  0.00  0.00     0.066 H 
ATOM     14  H2  <0> d           0.001  -0.030   0.114  0.00  0.00     0.066 H 
ATOM     15  H3  <0> d          -1.182   2.820   0.058  0.00  0.00     0.083 H 
ENDBRANCH   1  11
BRANCH   6  16
ATOM     16  C9  <0> d          -3.697   3.116   0.254  0.00  0.00     0.210 C 
ATOM     17  O1  <0> d          -2.666   3.754   0.163  0.00  0.00    -0.644 OA
ATOM     18  O2  <0> d          -4.866   3.752   0.465  0.00  0.00    -0.644 OA
ENDBRANCH   6  16
TORSDOF 2
