REMARK  10 active torsions:
REMARK  status: ('A' for Active; 'I' for Inactive)
REMARK    1  A    between atoms: C1_1  and  C2_2 
REMARK    2  A    between atoms: C2_2  and  C3_3 
REMARK    3  A    between atoms: C3_3  and  C4_4 
REMARK    4  A    between atoms: C3_3  and  C10_11 
REMARK    5  A    between atoms: C4_4  and  C5_5 
REMARK    6  A    between atoms: C5_5  and  O1_6 
REMARK    7  A    between atoms: O1_6  and  C6_7 
REMARK    8  A    between atoms: C6_7  and  C7_8 
REMARK    9  A    between atoms: C6_7  and  C8_9 
REMARK   10  A    between atoms: C6_7  and  C9_10 
ROOT
ATOM      1  C5  <0> d          -2.591  -1.151  -2.235  0.00  0.00     0.121 C 
ATOM      2  H6  <0> d          -2.512  -2.155  -2.625  0.00  0.00     0.107 H 
ENDROOT
BRANCH   1   3
ATOM      3  C4  <0> d          -2.001  -0.838  -1.111  0.00  0.00    -0.137 C 
BRANCH   3   4
ATOM      4  C3  <0> d          -1.412  -0.526   0.013  0.00  0.00     0.028 C 
BRANCH   4   5
ATOM      5  C2  <0> d           0.002  -0.004   0.002  0.00  0.00    -0.051 C 
ATOM      6  H4  <0> d           0.512  -0.356  -0.895  0.00  0.00     0.035 H 
ATOM      7  H5  <0> d           0.529  -0.365   0.885  0.00  0.00     0.035 H 
BRANCH   5   8
ATOM      8  C1  <0> d          -0.019   1.526   0.010  0.00  0.00    -0.075 C 
ATOM      9  H1  <0> d           1.004   1.903   0.003  0.00  0.00     0.027 H 
ATOM     10  H2  <0> d          -0.546   1.887  -0.873  0.00  0.00     0.027 H 
ATOM     11  H3  <0> d          -0.529   1.877   0.907  0.00  0.00     0.027 H 
ENDBRANCH   5   8
ENDBRANCH   4   5
BRANCH   4  12
ATOM     12  C10 <0> d          -2.146  -0.687   1.319  0.00  0.00    -0.058 C 
ATOM     13  H16 <0> d          -2.678   0.235   1.553  0.00  0.00     0.029 H 
ATOM     14  H17 <0> d          -2.859  -1.507   1.236  0.00  0.00     0.029 H 
ATOM     15  H18 <0> d          -1.431  -0.905   2.113  0.00  0.00     0.029 H 
ENDBRANCH   4  12
ENDBRANCH   3   4
ENDBRANCH   1   3
BRANCH   1  16
ATOM     16  O1  <0> d          -3.301  -0.217  -2.909  0.00  0.00    -0.361 OA
BRANCH  16  17
ATOM     17  C6  <0> d          -3.919  -0.629  -4.130  0.00  0.00     0.052 C 
BRANCH  17  18
ATOM     18  C7  <0> d          -4.902  -1.767  -3.846  0.00  0.00    -0.048 C 
ATOM     19  H7  <0> d          -5.666  -1.421  -3.150  0.00  0.00     0.031 H 
ATOM     20  H8  <0> d          -5.373  -2.080  -4.777  0.00  0.00     0.031 H 
ATOM     21  H9  <0> d          -4.366  -2.609  -3.408  0.00  0.00     0.031 H 
ENDBRANCH  17  18
BRANCH  17  22
ATOM     22  C8  <0> d          -4.672   0.553  -4.744  0.00  0.00    -0.048 C 
ATOM     23  H10 <0> d          -3.972   1.364  -4.946  0.00  0.00     0.031 H 
ATOM     24  H11 <0> d          -5.143   0.240  -5.675  0.00  0.00     0.031 H 
ATOM     25  H12 <0> d          -5.436   0.899  -4.048  0.00  0.00     0.031 H 
ENDBRANCH  17  22
BRANCH  17  26
ATOM     26  C9  <0> d          -2.846  -1.113  -5.106  0.00  0.00    -0.048 C 
ATOM     27  H13 <0> d          -2.310  -1.955  -4.669  0.00  0.00     0.031 H 
ATOM     28  H14 <0> d          -3.317  -1.427  -6.038  0.00  0.00     0.031 H 
ATOM     29  H15 <0> d          -2.146  -0.302  -5.309  0.00  0.00     0.031 H 
ENDBRANCH  17  26
ENDBRANCH  16  17
ENDBRANCH   1  16
TORSDOF 10
