REMARK  0 active torsions:
REMARK  status: ('A' for Active; 'I' for Inactive)
ROOT
ATOM      1  C1  <0> d           2.490   1.507  -0.013  0.00  0.00     0.021 A 
ATOM      2  C2  <0> d           1.230   2.091   0.002  0.00  0.00     0.075 A 
ATOM      3  C3  <0> d          -0.016   1.302   0.009  0.00  0.00     0.138 A 
ATOM      4  N1  <0> d           0.002  -0.004   0.002  0.00  0.00    -0.383 N 
ATOM      5  N2  <0> d          -1.206   2.011   0.018  0.00  0.00    -0.224 NA
ATOM      6  C4  <0> d          -1.190   3.369   0.032  0.00  0.00     0.091 A 
ATOM      7  N3  <0> d          -0.098   4.074   0.025  0.00  0.00    -0.221 NA
ATOM      8  C5  <0> d           1.127   3.501   0.010  0.00  0.00     0.167 A 
ATOM      9  N4  <0> d           2.250   4.218   0.004  0.00  0.00    -0.222 NA
ATOM     10  C6  <0> d           3.421   3.616  -0.010  0.00  0.00     0.088 A 
ATOM     11  N5  <0> d           3.550   2.302  -0.019  0.00  0.00    -0.253 NA
ATOM     12  H1  <0> d           2.603   0.433  -0.020  0.00  0.00     0.116 H 
ATOM     13  H2  <0> d          -0.943  -0.567   0.008  0.00  0.00     0.157 HD
ATOM     14  H3  <0> d          -2.135   3.891   0.045  0.00  0.00     0.146 H 
ATOM     15  H4  <0> d           4.314   4.224  -0.015  0.00  0.00     0.146 H 
ATOM     16  H5  <0> d           0.962  -0.541  -0.010  0.00  0.00     0.157 HD
ENDROOT
TORSDOF 0
