REMARK  2 active torsions:
REMARK  status: ('A' for Active; 'I' for Inactive)
REMARK    1  A    between atoms: C3_4  and  N3_10 
REMARK    2  A    between atoms: C5_6  and  C6_7 
ROOT
ATOM      1  C6  <0> d          -1.282  -0.792   0.011  0.00  0.00     0.038 C 
ATOM      2  C7  <0> d          -1.714  -1.041  -1.374  0.00  0.00     0.063 C 
ATOM      3  N2  <0> d          -2.048  -1.233  -2.443  0.00  0.00    -0.197 NA
ATOM      4  H4  <0> d          -1.122  -1.743   0.518  0.00  0.00     0.062 H 
ATOM      5  H5  <0> d          -2.052  -0.226   0.535  0.00  0.00     0.062 H 
ENDROOT
BRANCH   1   6
ATOM      6  C5  <0> d           0.002  -0.004   0.002  0.00  0.00    -0.040 A 
ATOM      7  C1  <0> d          -0.017   1.384   0.010  0.00  0.00    -0.059 A 
ATOM      8  C2  <0> d           1.178   2.077   0.002  0.00  0.00     0.005 A 
ATOM      9  H1  <0> d          -0.956   1.917   0.026  0.00  0.00     0.086 H 
ATOM     10  N1  <0> d           2.331   1.436  -0.013  0.00  0.00    -0.244 NA
ATOM     11  H2  <0> d           1.168   3.157   0.007  0.00  0.00     0.114 H 
ATOM     12  C3  <0> d           2.391   0.113  -0.020  0.00  0.00     0.121 A 
ATOM     13  C4  <0> d           1.227  -0.648  -0.014  0.00  0.00    -0.032 A 
ATOM     14  H3  <0> d           1.278  -1.726  -0.021  0.00  0.00     0.090 H 
BRANCH  12  15
ATOM     15  N3  <0> d           3.628  -0.520  -0.035  0.00  0.00    -0.384 N 
ATOM     16  H6  <0> d           4.442   0.006  -0.040  0.00  0.00     0.157 HD
ATOM     17  H7  <0> d           3.677  -1.489  -0.041  0.00  0.00     0.157 HD
ENDBRANCH  12  15
ENDBRANCH   1   6
TORSDOF 2
