REMARK  3 active torsions:
REMARK  status: ('A' for Active; 'I' for Inactive)
REMARK    1  A    between atoms: C1_1  and  C2_2 
REMARK    2  A    between atoms: C3_3  and  C9_11 
REMARK    3  A    between atoms: C5_5  and  C8_9 
ROOT
ATOM      1  C2  <0> d           1.383   2.062  -0.000  0.00  0.00    -0.082 C 
ATOM      2  C3  <0> d           2.429   1.362   0.302  0.00  0.00    -0.081 C 
ATOM      3  C4  <0> d           2.388  -0.085   0.695  0.00  0.00    -0.032 C 
ATOM      4  C5  <0> d           0.965  -0.482   1.096  0.00  0.00     0.034 C 
ATOM      5  H1  <0> d           0.704  -0.013   2.045  0.00  0.00     0.057 H 
ATOM      6  C6  <0> d           0.002  -0.004   0.002  0.00  0.00    -0.049 C 
ATOM      7  C7  <0> d          -0.019   1.526   0.010  0.00  0.00    -0.044 C 
ATOM      8  H5  <0> d           3.060  -0.250   1.538  0.00  0.00     0.041 H 
ATOM      9  H6  <0> d           2.710  -0.698  -0.147  0.00  0.00     0.041 H 
ATOM     10  H7  <0> d          -0.999  -0.385   0.203  0.00  0.00     0.034 H 
ATOM     11  H8  <0> d           0.341  -0.361  -0.971  0.00  0.00     0.034 H 
ATOM     12  H9  <0> d          -0.549   1.885  -0.871  0.00  0.00     0.039 H 
ATOM     13  H10 <0> d          -0.532   1.875   0.906  0.00  0.00     0.039 H 
ENDROOT
BRANCH   1  14
ATOM     14  C1  <0> d           1.585   3.504  -0.387  0.00  0.00    -0.054 C 
ATOM     15  H2  <0> d           1.535   4.130   0.504  0.00  0.00     0.033 H 
ATOM     16  H3  <0> d           2.561   3.621  -0.858  0.00  0.00     0.033 H 
ATOM     17  H4  <0> d           0.805   3.806  -1.087  0.00  0.00     0.033 H 
ENDBRANCH   1  14
BRANCH   2  18
ATOM     18  C9  <0> d           3.773   2.044   0.256  0.00  0.00    -0.054 C 
ATOM     19  H11 <0> d           4.200   1.937  -0.742  0.00  0.00     0.033 H 
ATOM     20  H12 <0> d           3.651   3.102   0.488  0.00  0.00     0.033 H 
ATOM     21  H13 <0> d           4.438   1.585   0.987  0.00  0.00     0.033 H 
ENDBRANCH   2  18
BRANCH   4  22
ATOM     22  C8  <0> d           0.876  -1.981   1.230  0.00  0.00     0.177 C 
ATOM     23  O1  <0> d           0.121  -2.606   0.524  0.00  0.00    -0.648 OA
ATOM     24  O2  <0> d           1.636  -2.620   2.133  0.00  0.00    -0.648 OA
ENDBRANCH   4  22
TORSDOF 3
