REMARK  3 active torsions:
REMARK  status: ('A' for Active; 'I' for Inactive)
REMARK    1  A    between atoms: C2_2  and  O3_12 
REMARK    2  A    between atoms: N1_5  and  C5_8 
REMARK    3  A    between atoms: C5_8  and  C6_9 
REMARK       I    between atoms: C6_9  and  N2_11 
ROOT
ATOM      1  C1  <0> d          -0.018   1.509   0.010  0.00  0.00     0.035 C 
ATOM      2  C2  <0> d           1.475   1.908  -0.002  0.00  0.00     0.059 C 
ATOM      3  H1  <0> d           1.827   2.071  -1.020  0.00  0.00     0.086 H 
ATOM      4  C3  <0> d           2.140   0.660   0.620  0.00  0.00     0.022 C 
ATOM      5  N1  <0> d           1.223  -0.452   0.341  0.00  0.00    -0.341 N 
ATOM      6  C4  <0> d           0.002  -0.004   0.002  0.00  0.00     0.222 C 
ATOM      7  O1  <0> d          -0.946  -0.710  -0.271  0.00  0.00    -0.273 OA
ATOM      8  H2  <0> d          -0.505   1.879   0.913  0.00  0.00     0.051 H 
ATOM      9  H3  <0> d          -0.522   1.888  -0.879  0.00  0.00     0.051 H 
ATOM     10  H4  <0> d           3.108   0.476   0.153  0.00  0.00     0.068 H 
ATOM     11  H5  <0> d           2.258   0.791   1.695  0.00  0.00     0.068 H 
ENDROOT
BRANCH   5  12
ATOM     12  C5  <0> d           1.592  -1.867   0.423  0.00  0.00     0.071 C 
ATOM     13  H6  <0> d           0.997  -2.439  -0.290  0.00  0.00     0.079 H 
ATOM     14  H7  <0> d           2.650  -1.982   0.187  0.00  0.00     0.079 H 
BRANCH  12  15
ATOM     15  C6  <0> d           1.330  -2.375   1.817  0.00  0.00     0.233 C 
ATOM     16  O2  <0> d           0.880  -1.628   2.660  0.00  0.00    -0.272 OA
ATOM     17  N2  <0> d           1.596  -3.659   2.128  0.00  0.00    -0.369 N 
ATOM     18  H8  <0> d           1.956  -4.257   1.454  0.00  0.00     0.159 HD
ATOM     19  H9  <0> d           1.428  -3.986   3.026  0.00  0.00     0.159 HD
ENDBRANCH  12  15
ENDBRANCH   5  12
BRANCH   2  20
ATOM     20  O3  <0> d           1.702   3.065   0.806  0.00  0.00    -0.393 OA
ATOM     21  H10 <0> d           1.226   3.852   0.508  0.00  0.00     0.210 HD
ENDBRANCH   2  20
TORSDOF 3
