REMARK  2 active torsions:
REMARK  status: ('A' for Active; 'I' for Inactive)
REMARK    1  A    between atoms: C1_1  and  C2_2 
REMARK    2  A    between atoms: C2_2  and  C3_3 
ROOT
ATOM      1  C3  <0> d          -1.444   3.691   0.136  0.00  0.00     0.004 C 
ATOM      2  H1  <0> d          -2.414   3.461   0.214  0.00  0.00     0.051 H 
ATOM      3  C4  <0> d          -0.677   3.107   1.327  0.00  0.00    -0.055 C 
ATOM      4  C5  <0> d          -0.729   1.579   1.266  0.00  0.00    -0.064 C 
ATOM      5  C6  <0> d          -0.013   1.086   0.008  0.00  0.00    -0.059 C 
ATOM      6  C7  <0> d          -0.754   1.594  -1.233  0.00  0.00    -0.009 C 
ATOM      7  C8  <0> d          -0.879   3.098  -1.136  0.00  0.00     0.131 C 
ATOM      8  O1  <0> d          -0.537   3.808  -2.051  0.00  0.00    -0.298 OA
ATOM      9  H7  <0> d           0.361   3.437   1.288  0.00  0.00     0.034 H 
ATOM     10  H8  <0> d          -1.133   3.450   2.256  0.00  0.00     0.034 H 
ATOM     11  H9  <0> d          -1.769   1.253   1.242  0.00  0.00     0.033 H 
ATOM     12  H10 <0> d          -0.241   1.164   2.148  0.00  0.00     0.033 H 
ATOM     13  H11 <0> d           0.002  -0.004   0.002  0.00  0.00     0.033 H 
ATOM     14  H12 <0> d           1.010   1.463   0.000  0.00  0.00     0.033 H 
ATOM     15  H13 <0> d          -0.240   1.346  -2.054  0.00  0.00     0.044 H 
ATOM     16  H14 <0> d          -1.746   1.143  -1.277  0.00  0.00     0.044 H 
ENDROOT
BRANCH   1  17
ATOM     17  C2  <0> d          -1.281   5.212   0.111  0.00  0.00    -0.059 C 
ATOM     18  H5  <0> d          -1.606   5.628   1.064  0.00  0.00     0.033 H 
ATOM     19  H6  <0> d          -0.233   5.462  -0.057  0.00  0.00     0.033 H 
BRANCH  17  20
ATOM     20  C1  <0> d          -2.131   5.797  -1.019  0.00  0.00    -0.076 C 
ATOM     21  H2  <0> d          -3.179   5.547  -0.852  0.00  0.00     0.027 H 
ATOM     22  H3  <0> d          -2.015   6.881  -1.037  0.00  0.00     0.027 H 
ATOM     23  H4  <0> d          -1.806   5.381  -1.972  0.00  0.00     0.027 H 
ENDBRANCH  17  20
ENDBRANCH   1  17
TORSDOF 2
