REMARK  2 active torsions:
REMARK  status: ('A' for Active; 'I' for Inactive)
REMARK    1  A    between atoms: C1_1  and  C2_2 
REMARK    2  A    between atoms: N1_10  and  N2_11 
ROOT
ATOM      1  C2  <0> d           0.002  -0.004   0.002  0.00  0.00     0.026 A 
ATOM      2  C3  <0> d           0.008  -0.769  -1.101  0.00  0.00    -0.048 A 
ATOM      3  C4  <0> d           0.030  -2.164  -0.655  0.00  0.00    -0.006 A 
ATOM      4  C5  <0> d           0.044  -3.394  -1.316  0.00  0.00    -0.071 A 
ATOM      5  C6  <0> d           0.064  -4.552  -0.593  0.00  0.00    -0.082 A 
ATOM      6  C7  <0> d           0.069  -4.517   0.795  0.00  0.00    -0.081 A 
ATOM      7  C8  <0> d           0.055  -3.315   1.468  0.00  0.00    -0.055 A 
ATOM      8  C9  <0> d           0.035  -2.122   0.751  0.00  0.00     0.061 A 
ATOM      9  N1  <0> d           0.023  -0.795   1.118  0.00  0.00    -0.283 N 
ATOM     10  H4  <0> d          -0.002  -0.421  -2.124  0.00  0.00     0.087 H 
ATOM     11  H5  <0> d           0.039  -3.429  -2.396  0.00  0.00     0.084 H 
ATOM     12  H6  <0> d           0.074  -5.503  -1.104  0.00  0.00     0.083 H 
ATOM     13  H7  <0> d           0.085  -5.441   1.353  0.00  0.00     0.083 H 
ATOM     14  H8  <0> d           0.060  -3.298   2.547  0.00  0.00     0.087 H 
ENDROOT
BRANCH   1  15
ATOM     15  C1  <0> d          -0.018   1.503   0.010  0.00  0.00    -0.036 C 
ATOM     16  H1  <0> d           1.004   1.880   0.003  0.00  0.00     0.035 H 
ATOM     17  H2  <0> d          -0.545   1.864  -0.873  0.00  0.00     0.035 H 
ATOM     18  H3  <0> d          -0.529   1.854   0.907  0.00  0.00     0.035 H 
ENDBRANCH   1  15
BRANCH   9  19
ATOM     19  N2  <0> d           0.029  -0.338   2.405  0.00  0.00    -0.242 NA
ATOM     20  H9  <0> d          -0.911  -0.229   2.755  0.00  0.00     0.143 HD
ATOM     21  H10 <0> d           0.570  -0.945   3.002  0.00  0.00     0.143 HD
ENDBRANCH   9  19
TORSDOF 2
