REMARK  4 active torsions:
REMARK  status: ('A' for Active; 'I' for Inactive)
REMARK    1  A    between atoms: C1_1  and  C2_2 
REMARK    2  A    between atoms: N2_5  and  C5_7 
REMARK    3  A    between atoms: C5_7  and  C6_9 
REMARK    4  A    between atoms: C5_7  and  C7_10 
ROOT
ATOM      1  C2  <0> d          -0.718   1.572   1.248  0.00  0.00    -0.026 A 
ATOM      2  C3  <0> d          -0.118   1.848   2.481  0.00  0.00     0.029 A 
ATOM      3  N1  <0> d          -1.050   2.246   3.308  0.00  0.00    -0.184 NA
ATOM      4  N2  <0> d          -2.274   2.236   2.627  0.00  0.00    -0.266 N 
ATOM      5  C4  <0> d          -2.043   1.824   1.363  0.00  0.00     0.007 A 
ATOM      6  H5  <0> d           0.932   1.750   2.710  0.00  0.00     0.118 H 
ATOM      7  H6  <0> d          -2.782   1.712   0.584  0.00  0.00     0.115 H 
ENDROOT
BRANCH   4   8
ATOM      8  C5  <0> d          -3.575   2.612   3.186  0.00  0.00     0.114 C 
ATOM      9  H1  <0> d          -3.559   2.477   4.268  0.00  0.00     0.092 H 
BRANCH   8  10
ATOM     10  C6  <0> d          -3.865   4.079   2.861  0.00  0.00    -0.046 C 
ATOM     11  H7  <0> d          -4.833   4.359   3.277  0.00  0.00     0.031 H 
ATOM     12  H8  <0> d          -3.088   4.708   3.294  0.00  0.00     0.031 H 
ATOM     13  H9  <0> d          -3.881   4.215   1.779  0.00  0.00     0.031 H 
ENDBRANCH   8  10
BRANCH   8  14
ATOM     14  C7  <0> d          -4.650   1.743   2.587  0.00  0.00     0.198 C 
ATOM     15  O1  <0> d          -4.359   0.895   1.776  0.00  0.00    -0.646 OA
ATOM     16  O2  <0> d          -5.930   1.909   2.954  0.00  0.00    -0.646 OA
ENDBRANCH   8  14
ENDBRANCH   4   8
BRANCH   1  17
ATOM     17  C1  <0> d          -0.013   1.086   0.008  0.00  0.00    -0.049 C 
ATOM     18  H2  <0> d           0.002  -0.004   0.002  0.00  0.00     0.033 H 
ATOM     19  H3  <0> d           1.010   1.463   0.000  0.00  0.00     0.033 H 
ATOM     20  H4  <0> d          -0.540   1.447  -0.875  0.00  0.00     0.033 H 
ENDBRANCH   1  17
TORSDOF 4
