REMARK  2 active torsions:
REMARK  status: ('A' for Active; 'I' for Inactive)
REMARK    1  A    between atoms: C1_1  and  C2_2 
REMARK    2  A    between atoms: C3_4  and  C7_11 
ROOT
ATOM      1  C2  <0> d          -0.012   0.039   0.032  0.00  0.00     0.057 C 
ATOM      2  H1  <0> d           0.440  -0.282  -0.906  0.00  0.00     0.085 H 
ATOM      3  C3  <0> d          -1.427  -0.535   0.141  0.00  0.00     0.056 C 
ATOM      4  H2  <0> d          -1.383  -1.623   0.085  0.00  0.00     0.060 H 
ATOM      5  C4  <0> d          -2.044  -0.116   1.479  0.00  0.00    -0.042 C 
ATOM      6  C5  <0> d          -1.166  -0.648   2.618  0.00  0.00     0.017 C 
ATOM      7  C6  <0> d           0.261  -0.219   2.358  0.00  0.00     0.259 C 
ATOM      8  O1  <0> d           0.921   0.302   3.226  0.00  0.00    -0.265 OA
ATOM      9  O2  <0> d           0.777  -0.436   1.130  0.00  0.00    -0.316 OA
ATOM     10  H6  <0> d          -2.094   0.971   1.533  0.00  0.00     0.035 H 
ATOM     11  H7  <0> d          -3.047  -0.534   1.565  0.00  0.00     0.035 H 
ATOM     12  H8  <0> d          -1.507  -0.236   3.568  0.00  0.00     0.048 H 
ATOM     13  H9  <0> d          -1.223  -1.737   2.648  0.00  0.00     0.048 H 
ENDROOT
BRANCH   1  14
ATOM     14  C1  <0> d          -0.076   1.567   0.072  0.00  0.00    -0.051 C 
ATOM     15  H3  <0> d           0.935   1.974   0.060  0.00  0.00     0.030 H 
ATOM     16  H4  <0> d          -0.625   1.930  -0.796  0.00  0.00     0.030 H 
ATOM     17  H5  <0> d          -0.585   1.885   0.983  0.00  0.00     0.030 H 
ENDBRANCH   1  14
BRANCH   3  18
ATOM     18  C7  <0> d          -2.272  -0.008  -0.991  0.00  0.00     0.179 C 
ATOM     19  O3  <0> d          -1.781   0.149  -2.096  0.00  0.00    -0.648 OA
ATOM     20  O4  <0> d          -3.445   0.263  -0.800  0.00  0.00    -0.648 OA
ENDBRANCH   3  18
TORSDOF 2
