REMARK  1 active torsions:
REMARK  status: ('A' for Active; 'I' for Inactive)
REMARK    1  A    between atoms: C3_3  and  C4_7 
ROOT
ATOM      1  C1  <0> d          -0.013   1.076   0.008  0.00  0.00     0.019 A 
ATOM      2  C2  <0> d           1.066   1.895   0.002  0.00  0.00     0.088 A 
ATOM      3  C3  <0> d           0.543   3.211   0.014  0.00  0.00     0.176 A 
ATOM      4  N1  <0> d          -0.771   3.104   0.025  0.00  0.00    -0.167 NA
ATOM      5  N2  <0> d          -1.115   1.866   0.017  0.00  0.00    -0.287 N 
ATOM      6  H1  <0> d          -2.058   1.534   0.017  0.00  0.00     0.188 HD
ATOM      7 Cl1  <0> d           2.739   1.429  -0.017  0.00  0.00    -0.080 Cl
ATOM      8  H2  <0> d           0.002  -0.004   0.002  0.00  0.00     0.116 H 
ENDROOT
BRANCH   3   9
ATOM      9  C4  <0> d           1.322   4.464   0.013  0.00  0.00     0.232 C 
ATOM     10  O1  <0> d           2.536   4.425   0.003  0.00  0.00    -0.643 OA
ATOM     11  O2  <0> d           0.686   5.652   0.025  0.00  0.00    -0.643 OA
ENDBRANCH   3   9
TORSDOF 1
