REMARK  2 active torsions:
REMARK  status: ('A' for Active; 'I' for Inactive)
REMARK    1  A    between atoms: C1_1  and  C2_2 
REMARK       I    between atoms: C2_2  and  N1_4 
REMARK    2  A    between atoms: N1_4  and  C3_5 
ROOT
ATOM      1  C3  <0> d          -1.159   3.558  -0.064  0.00  0.00     0.034 A 
ATOM      2  C4  <0> d           0.059   4.218  -0.156  0.00  0.00    -0.054 A 
ATOM      3  C5  <0> d           0.091   5.596  -0.243  0.00  0.00    -0.044 A 
ATOM      4  C6  <0> d          -1.089   6.320  -0.228  0.00  0.00     0.116 A 
ATOM      5  C7  <0> d          -2.304   5.664  -0.130  0.00  0.00    -0.044 A 
ATOM      6  C8  <0> d          -2.342   4.286  -0.048  0.00  0.00    -0.054 A 
ATOM      7  F1  <0> d          -1.055   7.668  -0.308  0.00  0.00    -0.206 F 
ATOM      8  H5  <0> d           0.980   3.655  -0.163  0.00  0.00     0.087 H 
ATOM      9  H6  <0> d           1.038   6.110  -0.320  0.00  0.00     0.088 H 
ATOM     10  H7  <0> d          -3.224   6.230  -0.118  0.00  0.00     0.088 H 
ATOM     11  H8  <0> d          -3.290   3.774   0.028  0.00  0.00     0.087 H 
ENDROOT
BRANCH   1  12
ATOM     12  N1  <0> d          -1.195   2.161   0.019  0.00  0.00    -0.328 N 
ATOM     13  C2  <0> d          -2.198   1.476  -0.564  0.00  0.00     0.218 C 
ATOM     14  O1  <0> d          -3.117   2.073  -1.085  0.00  0.00    -0.274 OA
ATOM     15  H4  <0> d          -0.497   1.685   0.497  0.00  0.00     0.169 HD
BRANCH  13  16
ATOM     16  C1  <0> d          -2.182  -0.031  -0.565  0.00  0.00    -0.003 C 
ATOM     17  H1  <0> d          -3.070  -0.403  -1.075  0.00  0.00     0.040 H 
ATOM     18  H2  <0> d          -1.290  -0.384  -1.084  0.00  0.00     0.040 H 
ATOM     19  H3  <0> d          -2.173  -0.395   0.462  0.00  0.00     0.040 H 
ENDBRANCH  13  16
ENDBRANCH   1  12
TORSDOF 2
