REMARK  1 active torsions:
REMARK  status: ('A' for Active; 'I' for Inactive)
REMARK    1  A    between atoms: C6_6  and  O1_7 
ROOT
ATOM      1  C1  <0> d          -0.017   1.377   0.010  0.00  0.00    -0.048 A 
ATOM      2  C2  <0> d           0.002  -0.004   0.002  0.00  0.00    -0.043 A 
ATOM      3  C3  <0> d           1.210  -0.681  -0.013  0.00  0.00     0.116 A 
ATOM      4  C4  <0> d           2.401   0.026  -0.021  0.00  0.00    -0.043 A 
ATOM      5  C5  <0> d           2.385   1.407  -0.013  0.00  0.00    -0.048 A 
ATOM      6  C6  <0> d           1.175   2.087   0.002  0.00  0.00     0.065 A 
ATOM      7  F1  <0> d           1.227  -2.031  -0.020  0.00  0.00    -0.206 F 
ATOM      8  H1  <0> d          -0.959   1.905   0.017  0.00  0.00     0.087 H 
ATOM      9  H2  <0> d          -0.926  -0.556   0.008  0.00  0.00     0.088 H 
ATOM     10  H3  <0> d           3.342  -0.503  -0.033  0.00  0.00     0.088 H 
ATOM     11  H4  <0> d           3.314   1.958  -0.018  0.00  0.00     0.087 H 
ENDROOT
BRANCH   6  12
ATOM     12  O1  <0> d           1.158   3.446   0.009  0.00  0.00    -0.361 OA
ATOM     13  H5  <0> d           1.162   3.835   0.894  0.00  0.00     0.217 HD
ENDBRANCH   6  12
TORSDOF 1
