REMARK  3 active torsions:
REMARK  status: ('A' for Active; 'I' for Inactive)
REMARK    1  A    between atoms: C1_1  and  C2_2 
REMARK    2  A    between atoms: C7_7  and  C8_8 
REMARK    3  A    between atoms: C8_8  and  O1_9 
ROOT
ATOM      1  C2  <0> d           2.275   3.861   0.007  0.00  0.00    -0.052 A 
ATOM      2  C3  <0> d           2.148   5.237   0.010  0.00  0.00    -0.056 A 
ATOM      3  C4  <0> d           0.891   5.816   0.025  0.00  0.00     0.034 A 
ATOM      4  C5  <0> d          -0.238   5.016   0.032  0.00  0.00    -0.061 A 
ATOM      5  C6  <0> d          -0.109   3.639   0.023  0.00  0.00    -0.073 A 
ATOM      6  C7  <0> d           1.147   3.062   0.008  0.00  0.00    -0.029 A 
ATOM      7 Cl1  <0> d           0.731   7.544   0.036  0.00  0.00    -0.084 Cl
ATOM      8  H4  <0> d           3.030   5.861   0.005  0.00  0.00     0.086 H 
ATOM      9  H5  <0> d          -1.219   5.466   0.044  0.00  0.00     0.086 H 
ATOM     10  H6  <0> d          -0.990   3.015   0.028  0.00  0.00     0.084 H 
ENDROOT
BRANCH   6  11
ATOM     11  C8  <0> d           1.286   1.562  -0.002  0.00  0.00     0.041 C 
ATOM     12  H7  <0> d           1.840   1.243   0.881  0.00  0.00     0.081 H 
ATOM     13  H8  <0> d           1.823   1.252  -0.899  0.00  0.00     0.081 H 
BRANCH  11  14
ATOM     14  O1  <0> d          -0.011   0.963   0.007  0.00  0.00    -0.396 OA
ATOM     15  H9  <0> d           0.002  -0.004   0.002  0.00  0.00     0.209 HD
ENDBRANCH  11  14
ENDBRANCH   6  11
BRANCH   1  16
ATOM     16  C1  <0> d           3.644   3.231  -0.003  0.00  0.00    -0.051 C 
ATOM     17  H1  <0> d           3.970   3.085  -1.033  0.00  0.00     0.033 H 
ATOM     18  H2  <0> d           4.349   3.885   0.511  0.00  0.00     0.033 H 
ATOM     19  H3  <0> d           3.604   2.268   0.506  0.00  0.00     0.033 H 
ENDBRANCH   1  16
TORSDOF 3
