REMARK  2 active torsions:
REMARK  status: ('A' for Active; 'I' for Inactive)
REMARK    1  A    between atoms: C1_1  and  S1_2 
REMARK    2  A    between atoms: S1_2  and  C2_3 
ROOT
ATOM      1  C2  <0> d           0.848  -0.411  -1.489  0.00  0.00     0.211 A 
ATOM      2  N1  <0> d           1.290   0.561  -2.278  0.00  0.00    -0.123 NA
ATOM      3  N2  <0> d           1.913   0.303  -3.375  0.00  0.00    -0.156 NA
ATOM      4  C3  <0> d           2.130  -0.945  -3.746  0.00  0.00     0.077 A 
ATOM      5  C4  <0> d           1.676  -1.986  -2.935  0.00  0.00     0.222 A 
ATOM      6  O1  <0> d           1.883  -3.277  -3.288  0.00  0.00    -0.169 OA
ATOM      7  N3  <0> d           1.042  -1.685  -1.807  0.00  0.00    -0.193 NA
ATOM      8  H4  <0> d           2.653  -1.158  -4.667  0.00  0.00     0.124 H 
ENDROOT
BRANCH   1   9
ATOM      9  S1  <0> d           0.002  -0.004   0.002  0.00  0.00    -0.093 SA
BRANCH   9  10
ATOM     10  C1  <0> d          -0.022   1.810   0.012  0.00  0.00    -0.027 C 
ATOM     11  H1  <0> d           1.000   2.187   0.004  0.00  0.00     0.042 H 
ATOM     12  H2  <0> d          -0.550   2.171  -0.871  0.00  0.00     0.042 H 
ATOM     13  H3  <0> d          -0.533   2.161   0.909  0.00  0.00     0.042 H 
ENDBRANCH   9  10
ENDBRANCH   1   9
TORSDOF 2
