REMARK  3 active torsions:
REMARK  status: ('A' for Active; 'I' for Inactive)
REMARK    1  A    between atoms: C3_3  and  N3_9 
REMARK    2  A    between atoms: C4_4  and  N2_8 
REMARK    3  A    between atoms: C6_6  and  N1_7 
ROOT
ATOM      1  C1  <0> d          -0.017   1.384   0.010  0.00  0.00    -0.056 A 
ATOM      2  C2  <0> d           1.170   2.094   0.002  0.00  0.00    -0.053 A 
ATOM      3  C3  <0> d           2.381   1.421  -0.013  0.00  0.00     0.052 A 
ATOM      4  C4  <0> d           2.404   0.027  -0.021  0.00  0.00     0.054 A 
ATOM      5  C5  <0> d           1.213  -0.683  -0.013  0.00  0.00    -0.030 A 
ATOM      6  C6  <0> d           0.002  -0.004   0.002  0.00  0.00     0.028 A 
ATOM      7  H1  <0> d          -0.960   1.910   0.026  0.00  0.00     0.087 H 
ATOM      8  H2  <0> d           1.153   3.174   0.008  0.00  0.00     0.087 H 
ATOM      9  H3  <0> d           1.228  -1.763  -0.019  0.00  0.00     0.090 H 
ENDROOT
BRANCH   3  10
ATOM     10  N3  <0> d           3.585   2.143  -0.021  0.00  0.00    -0.397 N 
ATOM     11  H8  <0> d           3.569   3.113  -0.016  0.00  0.00     0.156 HD
ATOM     12  H9  <0> d           4.433   1.672  -0.032  0.00  0.00     0.156 HD
ENDBRANCH   3  10
BRANCH   4  13
ATOM     13  N2  <0> d           3.627  -0.655  -0.036  0.00  0.00    -0.397 N 
ATOM     14  H6  <0> d           4.459  -0.157  -0.042  0.00  0.00     0.156 HD
ATOM     15  H7  <0> d           3.641  -1.625  -0.042  0.00  0.00     0.156 HD
ENDBRANCH   4  13
BRANCH   6  16
ATOM     16  N1  <0> d          -1.201  -0.720   0.010  0.00  0.00    -0.399 N 
ATOM     17  H4  <0> d          -2.047  -0.246   0.021  0.00  0.00     0.156 HD
ATOM     18  H5  <0> d          -1.188  -1.690   0.005  0.00  0.00     0.156 HD
ENDBRANCH   6  16
TORSDOF 3
