REMARK  5 active torsions:
REMARK  status: ('A' for Active; 'I' for Inactive)
REMARK    1  A    between atoms: C1_1  and  C2_2 
REMARK    2  A    between atoms: C2_2  and  C3_3 
REMARK    3  A    between atoms: C2_2  and  C4_5 
REMARK    4  A    between atoms: C2_2  and  O2_11 
REMARK    5  A    between atoms: C3_3  and  O1_4 
ROOT
ATOM      1  C2  <0> d           3.672   2.182  -0.024  0.00  0.00     0.102 C 
ENDROOT
BRANCH   1   2
ATOM      2  C1  <0> d           4.096   2.450  -1.470  0.00  0.00    -0.042 C 
ATOM      3  H1  <0> d           3.323   3.031  -1.973  0.00  0.00     0.032 H 
ATOM      4  H2  <0> d           5.032   3.007  -1.476  0.00  0.00     0.032 H 
ATOM      5  H3  <0> d           4.234   1.502  -1.990  0.00  0.00     0.032 H 
ENDBRANCH   1   2
BRANCH   1   6
ATOM      6  C3  <0> d           3.478   3.513   0.705  0.00  0.00     0.049 C 
ATOM      7  H4  <0> d           2.646   4.055   0.257  0.00  0.00     0.079 H 
ATOM      8  H5  <0> d           3.263   3.323   1.757  0.00  0.00     0.079 H 
BRANCH   6   9
ATOM      9  O1  <0> d           4.670   4.294   0.596  0.00  0.00    -0.398 OA
ATOM     10  H6  <0> d           4.619   5.153   1.037  0.00  0.00     0.209 HD
ENDBRANCH   6   9
ENDBRANCH   1   6
BRANCH   1  11
ATOM     11  C4  <0> d           2.377   1.411  -0.015  0.00  0.00    -0.022 A 
ATOM     12  C9  <0> d           2.396   0.029  -0.022  0.00  0.00    -0.074 A 
ATOM     13  C8  <0> d           1.208  -0.679  -0.013  0.00  0.00    -0.082 A 
ATOM     14  H11 <0> d           3.338  -0.499  -0.034  0.00  0.00     0.084 H 
ATOM     15  C7  <0> d           0.002  -0.004   0.002  0.00  0.00    -0.083 A 
ATOM     16  H10 <0> d           1.223  -1.759  -0.019  0.00  0.00     0.083 H 
ATOM     17  C6  <0> d          -0.017   1.378   0.010  0.00  0.00    -0.082 A 
ATOM     18  H9  <0> d          -0.926  -0.557   0.008  0.00  0.00     0.083 H 
ATOM     19  C5  <0> d           1.171   2.086   0.002  0.00  0.00    -0.074 A 
ATOM     20  H8  <0> d          -0.959   1.905   0.017  0.00  0.00     0.083 H 
ATOM     21  H7  <0> d           1.156   3.165   0.008  0.00  0.00     0.084 H 
ENDBRANCH   1  11
BRANCH   1  22
ATOM     22  O2  <0> d           4.685   1.420   0.636  0.00  0.00    -0.383 OA
ATOM     23  H12 <0> d           4.483   1.213   1.558  0.00  0.00     0.211 HD
ENDBRANCH   1  22
TORSDOF 5
