REMARK  5 active torsions:
REMARK  status: ('A' for Active; 'I' for Inactive)
REMARK    1  A    between atoms: C1_1  and  C2_2 
REMARK    2  A    between atoms: C2_2  and  C3_3 
REMARK    3  A    between atoms: C3_3  and  C4_4 
REMARK    4  A    between atoms: C4_4  and  C5_5 
REMARK    5  A    between atoms: C8_8  and  O1_11 
ROOT
ATOM      1  C5  <0> d           1.503  -2.548   2.473  0.00  0.00    -0.054 C 
ATOM      2  C6  <0> d           2.971  -2.123   2.400  0.00  0.00    -0.059 C 
ATOM      3  C7  <0> d           3.711  -2.629   3.639  0.00  0.00    -0.041 C 
ATOM      4  C8  <0> d           3.624  -4.156   3.696  0.00  0.00     0.035 C 
ATOM      5  C9  <0> d           2.156  -4.581   3.769  0.00  0.00    -0.041 C 
ATOM      6  C10 <0> d           1.416  -4.074   2.530  0.00  0.00    -0.059 C 
ATOM      7  H10 <0> d           1.046  -2.124   3.367  0.00  0.00     0.040 H 
ATOM      8  H11 <0> d           3.428  -2.546   1.505  0.00  0.00     0.033 H 
ATOM      9  H12 <0> d           3.033  -1.035   2.359  0.00  0.00     0.033 H 
ATOM     10  H13 <0> d           4.756  -2.326   3.587  0.00  0.00     0.036 H 
ATOM     11  H14 <0> d           3.254  -2.206   4.534  0.00  0.00     0.036 H 
ATOM     12  H15 <0> d           4.081  -4.579   2.802  0.00  0.00     0.082 H 
ATOM     13  H16 <0> d           2.094  -5.668   3.810  0.00  0.00     0.036 H 
ATOM     14  H17 <0> d           1.699  -4.157   4.664  0.00  0.00     0.036 H 
ATOM     15  H18 <0> d           0.370  -4.377   2.582  0.00  0.00     0.033 H 
ATOM     16  H19 <0> d           1.873  -4.498   1.635  0.00  0.00     0.033 H 
ENDROOT
BRANCH   1  17
ATOM     17  C4  <0> d           0.763  -2.041   1.233  0.00  0.00    -0.062 C 
ATOM     18  H8  <0> d          -0.260  -2.418   1.241  0.00  0.00     0.033 H 
ATOM     19  H9  <0> d           1.273  -2.392   0.336  0.00  0.00     0.033 H 
BRANCH  17  20
ATOM     20  C3  <0> d           0.742  -0.511   1.242  0.00  0.00    -0.065 C 
ATOM     21  H6  <0> d           1.765  -0.134   1.234  0.00  0.00     0.033 H 
ATOM     22  H7  <0> d           0.232  -0.159   2.138  0.00  0.00     0.033 H 
BRANCH  20  23
ATOM     23  C2  <0> d           0.002  -0.004   0.002  0.00  0.00    -0.069 C 
ATOM     24  H4  <0> d          -1.020  -0.381   0.010  0.00  0.00     0.032 H 
ATOM     25  H5  <0> d           0.512  -0.356  -0.895  0.00  0.00     0.032 H 
BRANCH  23  26
ATOM     26  C1  <0> d          -0.019   1.526   0.010  0.00  0.00    -0.077 C 
ATOM     27  H1  <0> d           1.004   1.903   0.003  0.00  0.00     0.027 H 
ATOM     28  H2  <0> d          -0.546   1.887  -0.873  0.00  0.00     0.027 H 
ATOM     29  H3  <0> d          -0.529   1.877   0.907  0.00  0.00     0.027 H 
ENDBRANCH  23  26
ENDBRANCH  20  23
ENDBRANCH  17  20
ENDBRANCH   1  17
BRANCH   4  30
ATOM     30  O1  <0> d           4.315  -4.629   4.854  0.00  0.00    -0.396 OA
ATOM     31  H20 <0> d           4.301  -5.591   4.955  0.00  0.00     0.210 HD
ENDBRANCH   4  30
TORSDOF 5
