REMARK  3 active torsions:
REMARK  status: ('A' for Active; 'I' for Inactive)
REMARK    1  A    between atoms: C1_1  and  O1_2 
REMARK    2  A    between atoms: O1_2  and  C2_3 
REMARK    3  A    between atoms: C2_3  and  C3_5 
ROOT
ATOM      1  C3  <0> d           0.659  -2.073  -1.122  0.00  0.00     0.147 A 
ATOM      2  C4  <0> d           1.279  -2.680  -2.197  0.00  0.00     0.014 A 
ATOM      3  N1  <0> d           1.334  -4.026  -2.270  0.00  0.00    -0.330 N 
ATOM      4  H1  <0> d           1.769  -4.457  -3.022  0.00  0.00     0.168 HD
ATOM      5  C5  <0> d           0.781  -4.766  -1.286  0.00  0.00     0.262 A 
ATOM      6  O3  <0> d           0.822  -5.983  -1.336  0.00  0.00    -0.267 OA
ATOM      7  C6  <0> d           0.151  -4.116  -0.195  0.00  0.00     0.068 A 
ATOM      8  N2  <0> d           0.114  -2.812  -0.143  0.00  0.00    -0.248 NA
ATOM      9  H5  <0> d           1.718  -2.078  -2.978  0.00  0.00     0.115 H 
ATOM     10  H6  <0> d          -0.295  -4.700   0.597  0.00  0.00     0.123 H 
ENDROOT
BRANCH   1  11
ATOM     11  C2  <0> d           0.601  -0.602  -1.047  0.00  0.00     0.313 C 
ATOM     12  O2  <0> d           1.093   0.071  -1.931  0.00  0.00    -0.257 OA
BRANCH  11  13
ATOM     13  O1  <0> d           0.002  -0.004   0.002  0.00  0.00    -0.321 OA
BRANCH  13  14
ATOM     14  C1  <0> d          -0.017   1.425   0.010  0.00  0.00     0.013 C 
ATOM     15  H2  <0> d           1.005   1.802   0.002  0.00  0.00     0.067 H 
ATOM     16  H3  <0> d          -0.544   1.786  -0.873  0.00  0.00     0.067 H 
ATOM     17  H4  <0> d          -0.527   1.776   0.907  0.00  0.00     0.067 H 
ENDBRANCH  13  14
ENDBRANCH  11  13
ENDBRANCH   1  11
TORSDOF 3
