REMARK  4 active torsions:
REMARK  status: ('A' for Active; 'I' for Inactive)
REMARK    1  A    between atoms: C1_1  and  C2_2 
REMARK    2  A    between atoms: C2_2  and  O1_3 
REMARK    3  A    between atoms: O1_3  and  C3_4 
REMARK    4  A    between atoms: C3_4  and  C4_6 
ROOT
ATOM      1  C4  <0> d           0.145   0.983   4.903  0.00  0.00     0.096 C 
ATOM      2  H1  <0> d           1.228   1.029   4.791  0.00  0.00     0.088 H 
ATOM      3  C5  <0> d          -0.298  -0.455   5.251  0.00  0.00    -0.029 C 
ATOM      4  C6  <0> d          -1.481  -0.197   6.212  0.00  0.00     0.011 C 
ATOM      5  C7  <0> d          -1.200   1.174   6.787  0.00  0.00     0.218 C 
ATOM      6  O3  <0> d          -1.726   1.632   7.779  0.00  0.00    -0.274 OA
ATOM      7  N1  <0> d          -0.282   1.810   6.038  0.00  0.00    -0.347 N 
ATOM      8  H7  <0> d          -0.629  -0.988   4.359  0.00  0.00     0.037 H 
ATOM      9  H8  <0> d           0.502  -0.999   5.754  0.00  0.00     0.037 H 
ATOM     10  H9  <0> d          -1.500  -0.946   7.004  0.00  0.00     0.047 H 
ATOM     11  H10 <0> d          -2.425  -0.196   5.667  0.00  0.00     0.047 H 
ATOM     12  H11 <0> d           0.054   2.700   6.224  0.00  0.00     0.163 HD
ENDROOT
BRANCH   1  13
ATOM     13  C3  <0> d          -0.530   1.446   3.638  0.00  0.00     0.281 C 
ATOM     14  O2  <0> d          -1.525   2.129   3.699  0.00  0.00    -0.263 OA
BRANCH  13  15
ATOM     15  O1  <0> d          -0.027   1.098   2.443  0.00  0.00    -0.320 OA
BRANCH  15  16
ATOM     16  C2  <0> d          -0.729   1.579   1.267  0.00  0.00     0.026 C 
ATOM     17  H5  <0> d          -0.744   2.669   1.273  0.00  0.00     0.074 H 
ATOM     18  H6  <0> d          -1.751   1.202   1.275  0.00  0.00     0.074 H 
BRANCH  16  19
ATOM     19  C1  <0> d          -0.013   1.086   0.008  0.00  0.00    -0.056 C 
ATOM     20  H2  <0> d           0.002  -0.004   0.002  0.00  0.00     0.030 H 
ATOM     21  H3  <0> d           1.010   1.463   0.000  0.00  0.00     0.030 H 
ATOM     22  H4  <0> d          -0.540   1.447  -0.875  0.00  0.00     0.030 H 
ENDBRANCH  16  19
ENDBRANCH  15  16
ENDBRANCH  13  15
ENDBRANCH   1  13
TORSDOF 4
