REMARK  1 active torsions:
REMARK  status: ('A' for Active; 'I' for Inactive)
REMARK    1  A    between atoms: C1_1  and  C2_2 
ROOT
ATOM      1  C2  <0> d           0.002  -0.004   0.002  0.00  0.00    -0.019 A 
ATOM      2  C3  <0> d          -1.034  -0.850   0.002  0.00  0.00    -0.059 A 
ATOM      3  C4  <0> d          -0.800  -2.304  -0.006  0.00  0.00    -0.011 A 
ATOM      4  C5  <0> d          -1.674  -3.488  -0.008  0.00  0.00    -0.065 A 
ATOM      5  C6  <0> d          -1.140  -4.715  -0.016  0.00  0.00    -0.043 A 
ATOM      6  S1  <0> d           0.614  -4.393  -0.023  0.00  0.00    -0.094 SA
ATOM      7  C7  <0> d           0.559  -2.633  -0.014  0.00  0.00     0.056 A 
ATOM      8  S2  <0> d           1.413  -1.094  -0.018  0.00  0.00    -0.087 SA
ATOM      9  H4  <0> d          -2.044  -0.467   0.008  0.00  0.00     0.086 H 
ATOM     10  H5  <0> d          -2.747  -3.367  -0.002  0.00  0.00     0.085 H 
ATOM     11  H6  <0> d          -1.648  -5.668  -0.018  0.00  0.00     0.095 H 
ENDROOT
BRANCH   1  12
ATOM     12  C1  <0> d          -0.018   1.503   0.010  0.00  0.00    -0.045 C 
ATOM     13  H1  <0> d           1.004   1.880   0.003  0.00  0.00     0.034 H 
ATOM     14  H2  <0> d          -0.545   1.864  -0.873  0.00  0.00     0.034 H 
ATOM     15  H3  <0> d          -0.529   1.854   0.907  0.00  0.00     0.034 H 
ENDBRANCH   1  12
TORSDOF 1
