REMARK  3 active torsions:
REMARK  status: ('A' for Active; 'I' for Inactive)
REMARK    1  A    between atoms: C1_1  and  C2_2 
REMARK    2  A    between atoms: C5_7  and  C6_9 
REMARK    3  A    between atoms: C6_9  and  C7_10 
ROOT
ATOM      1  C2  <0> d           1.429   1.887  -0.001  0.00  0.00    -0.048 A 
ATOM      2  C3  <0> d           2.167   0.781  -0.014  0.00  0.00    -0.006 A 
ATOM      3  C4  <0> d           1.291  -0.393  -0.012  0.00  0.00     0.283 A 
ATOM      4  O1  <0> d           1.671  -1.548  -0.022  0.00  0.00    -0.260 OA
ATOM      5  O2  <0> d           0.002  -0.004   0.002  0.00  0.00    -0.308 OA
ATOM      6  C5  <0> d          -0.018   1.451   0.010  0.00  0.00     0.079 A 
ATOM      7  H1  <0> d          -0.512   1.815   0.911  0.00  0.00     0.092 H 
ATOM      8  H5  <0> d           3.247   0.753  -0.025  0.00  0.00     0.093 H 
ENDROOT
BRANCH   6   9
ATOM      9  C6  <0> d          -0.736   1.975  -1.235  0.00  0.00     0.044 C 
ATOM     10  H6  <0> d          -0.645   3.061  -1.277  0.00  0.00     0.053 H 
ATOM     11  H7  <0> d          -0.285   1.538  -2.126  0.00  0.00     0.053 H 
BRANCH   9  12
ATOM     12  C7  <0> d          -2.193   1.595  -1.172  0.00  0.00     0.175 C 
ATOM     13  O3  <0> d          -2.614   0.969  -0.228  0.00  0.00    -0.648 OA
ATOM     14  O4  <0> d          -3.023   1.952  -2.164  0.00  0.00    -0.648 OA
ENDBRANCH   9  12
ENDBRANCH   6   9
BRANCH   1  15
ATOM     15  C1  <0> d           1.938   3.306   0.001  0.00  0.00    -0.052 C 
ATOM     16  H2  <0> d           2.070   3.642   1.030  0.00  0.00     0.033 H 
ATOM     17  H3  <0> d           2.893   3.350  -0.521  0.00  0.00     0.033 H 
ATOM     18  H4  <0> d           1.218   3.951  -0.502  0.00  0.00     0.033 H 
ENDBRANCH   1  15
TORSDOF 3
