REMARK  7 active torsions:
REMARK  status: ('A' for Active; 'I' for Inactive)
REMARK    1  A    between atoms: C1_1  and  C2_2 
REMARK    2  A    between atoms: C2_2  and  C3_3 
REMARK    3  A    between atoms: C3_3  and  C4_4 
REMARK    4  A    between atoms: C4_4  and  O1_5 
REMARK    5  A    between atoms: O1_5  and  C5_6 
REMARK    6  A    between atoms: C5_6  and  C6_8 
REMARK    7  A    between atoms: C6_8  and  C7_9 
ROOT
ATOM      1  C4  <0> d           2.367   1.117  -0.015  0.00  0.00     0.029 C 
ATOM      2  H8  <0> d           2.409   0.484   0.872  0.00  0.00     0.075 H 
ATOM      3  H9  <0> d           2.392   0.493  -0.908  0.00  0.00     0.075 H 
ENDROOT
BRANCH   1   4
ATOM      4  C3  <0> d           3.568   2.065  -0.021  0.00  0.00    -0.045 C 
ATOM      5  H6  <0> d           3.526   2.698  -0.907  0.00  0.00     0.036 H 
ATOM      6  H7  <0> d           3.543   2.689   0.873  0.00  0.00     0.036 H 
BRANCH   4   7
ATOM      7  C2  <0> d           4.862   1.250  -0.038  0.00  0.00    -0.067 C 
ATOM      8  H4  <0> d           4.904   0.616   0.849  0.00  0.00     0.032 H 
ATOM      9  H5  <0> d           4.887   0.626  -0.931  0.00  0.00     0.032 H 
BRANCH   7  10
ATOM     10  C1  <0> d           6.063   2.198  -0.044  0.00  0.00    -0.076 C 
ATOM     11  H1  <0> d           6.038   2.822   0.850  0.00  0.00     0.027 H 
ATOM     12  H2  <0> d           6.985   1.617  -0.056  0.00  0.00     0.027 H 
ATOM     13  H3  <0> d           6.021   2.831  -0.930  0.00  0.00     0.027 H 
ENDBRANCH   7  10
ENDBRANCH   4   7
ENDBRANCH   1   4
BRANCH   1  14
ATOM     14  O1  <0> d           1.139   1.891   0.001  0.00  0.00    -0.321 OA
BRANCH  14  15
ATOM     15  C5  <0> d          -0.014   1.204   0.009  0.00  0.00     0.258 C 
ATOM     16  O2  <0> d           0.002  -0.004   0.002  0.00  0.00    -0.265 OA
BRANCH  15  17
ATOM     17  C6  <0> d          -1.329   1.940   0.019  0.00  0.00     0.013 C 
ATOM     18  H10 <0> d          -1.391   2.561   0.913  0.00  0.00     0.047 H 
ATOM     19  H11 <0> d          -1.400   2.570  -0.867  0.00  0.00     0.047 H 
BRANCH  17  20
ATOM     20  C7  <0> d          -2.479   0.930   0.019  0.00  0.00    -0.068 C 
ATOM     21  H12 <0> d          -2.417   0.309  -0.875  0.00  0.00     0.028 H 
ATOM     22  H13 <0> d          -2.408   0.299   0.905  0.00  0.00     0.028 H 
ATOM     23  H14 <0> d          -3.430   1.462   0.026  0.00  0.00     0.028 H 
ENDBRANCH  17  20
ENDBRANCH  15  17
ENDBRANCH  14  15
ENDBRANCH   1  14
TORSDOF 7
