REMARK  6 active torsions:
REMARK  status: ('A' for Active; 'I' for Inactive)
REMARK    1  A    between atoms: C1_1  and  C2_2 
REMARK    2  A    between atoms: C2_2  and  C3_3 
REMARK    3  A    between atoms: C3_3  and  C4_4 
REMARK    4  A    between atoms: C3_3  and  C5_5 
REMARK    5  A    between atoms: C3_3  and  C6_6 
REMARK    6  A    between atoms: C6_6  and  C7_7 
ROOT
ATOM      1  C3  <0> d           0.718  -0.497  -1.257  0.00  0.00    -0.045 C 
ENDROOT
BRANCH   1   2
ATOM      2  C2  <0> d           0.002  -0.004   0.002  0.00  0.00    -0.062 C 
ATOM      3  H4  <0> d           0.529  -0.365   0.885  0.00  0.00     0.033 H 
ATOM      4  H5  <0> d          -1.020  -0.381   0.010  0.00  0.00     0.033 H 
BRANCH   2   5
ATOM      5  C1  <0> d          -0.019   1.526   0.010  0.00  0.00    -0.076 C 
ATOM      6  H1  <0> d           1.004   1.903   0.003  0.00  0.00     0.027 H 
ATOM      7  H2  <0> d          -0.546   1.887  -0.873  0.00  0.00     0.027 H 
ATOM      8  H3  <0> d          -0.529   1.877   0.907  0.00  0.00     0.027 H 
ENDBRANCH   2   5
ENDBRANCH   1   2
BRANCH   1   9
ATOM      9  C4  <0> d          -0.022   0.009  -2.496  0.00  0.00    -0.069 C 
ATOM     10  H6  <0> d          -0.037   1.099  -2.490  0.00  0.00     0.028 H 
ATOM     11  H7  <0> d           0.488  -0.342  -3.393  0.00  0.00     0.028 H 
ATOM     12  H8  <0> d          -1.044  -0.368  -2.489  0.00  0.00     0.028 H 
ENDBRANCH   1   9
BRANCH   1  13
ATOM     13  C5  <0> d           2.154   0.032  -1.268  0.00  0.00    -0.069 C 
ATOM     14  H9  <0> d           2.681  -0.329  -0.385  0.00  0.00     0.028 H 
ATOM     15  H10 <0> d           2.664  -0.319  -2.164  0.00  0.00     0.028 H 
ATOM     16  H11 <0> d           2.139   1.122  -1.262  0.00  0.00     0.028 H 
ENDBRANCH   1  13
BRANCH   1  17
ATOM     17  C6  <0> d           0.739  -2.027  -1.265  0.00  0.00    -0.044 C 
ATOM     18  H12 <0> d           1.266  -2.388  -0.382  0.00  0.00     0.040 H 
ATOM     19  H13 <0> d          -0.284  -2.405  -1.258  0.00  0.00     0.040 H 
BRANCH  17  20
ATOM     20  C7  <0> d           1.444  -2.513  -2.505  0.00  0.00    -0.111 C 
ATOM     21  C8  <0> d           2.462  -3.332  -2.401  0.00  0.00    -0.125 C 
ATOM     22  H15 <0> d           2.795  -3.659  -1.427  0.00  0.00     0.066 H 
ATOM     23  H16 <0> d           2.967  -3.680  -3.290  0.00  0.00     0.066 H 
ATOM     24  H14 <0> d           1.111  -2.187  -3.479  0.00  0.00     0.075 H 
ENDBRANCH  17  20
ENDBRANCH   1  17
TORSDOF 6
