REMARK  2 active torsions:
REMARK  status: ('A' for Active; 'I' for Inactive)
REMARK    1  A    between atoms: C1_1  and  C4_5 
REMARK    2  A    between atoms: C2_2  and  C3_3 
ROOT
ATOM      1  C1  <0> d           0.018  -1.178  -0.004  0.00  0.00     0.016 C 
ATOM      2  C2  <0> d           0.002  -0.004   0.002  0.00  0.00     0.016 C 
ENDROOT
BRANCH   1   3
ATOM      3  C4  <0> d           0.037  -2.610  -0.012  0.00  0.00     0.259 C 
ATOM      4  O2  <0> d           1.097  -3.203  -0.026  0.00  0.00    -0.637 OA
ATOM      5  O4  <0> d          -1.120  -3.299  -0.005  0.00  0.00    -0.637 OA
ENDBRANCH   1   3
BRANCH   2   6
ATOM      6  C3  <0> d          -0.017   1.428   0.010  0.00  0.00     0.259 C 
ATOM      7  O1  <0> d          -1.077   2.021   0.018  0.00  0.00    -0.637 OA
ATOM      8  O3  <0> d           1.140   2.117   0.003  0.00  0.00    -0.637 OA
ENDBRANCH   2   6
TORSDOF 2
