REMARK  2 active torsions:
REMARK  status: ('A' for Active; 'I' for Inactive)
REMARK    1  A    between atoms: C1_1  and  C3_7 
REMARK    2  A    between atoms: C2_4  and  N3_6 
REMARK       I    between atoms: C3_7  and  N4_9 
ROOT
ATOM      1  C1  <0> d           1.277   1.738  -0.001  0.00  0.00     0.262 A 
ATOM      2  N1  <0> d           2.023   0.657  -0.014  0.00  0.00    -0.114 NA
ATOM      3  N2  <0> d           1.266  -0.383  -0.012  0.00  0.00    -0.103 NA
ATOM      4  C2  <0> d           0.002  -0.004   0.002  0.00  0.00     0.265 A 
ATOM      5  O1  <0> d          -0.016   1.339   0.009  0.00  0.00    -0.251 OA
ENDROOT
BRANCH   1   6
ATOM      6  C3  <0> d           1.757   3.127   0.001  0.00  0.00     0.294 C 
ATOM      7  O2  <0> d           0.961   4.046   0.013  0.00  0.00    -0.264 OA
ATOM      8  N4  <0> d           3.081   3.381  -0.010  0.00  0.00    -0.363 N 
ATOM      9  H3  <0> d           3.716   2.648  -0.019  0.00  0.00     0.159 HD
ATOM     10  H4  <0> d           3.398   4.298  -0.008  0.00  0.00     0.159 HD
ENDBRANCH   1   6
BRANCH   4  11
ATOM     11  N3  <0> d          -1.094  -0.832   0.008  0.00  0.00    -0.362 N 
ATOM     12  H1  <0> d          -1.988  -0.453   0.019  0.00  0.00     0.159 HD
ATOM     13  H2  <0> d          -0.976  -1.794   0.002  0.00  0.00     0.159 HD
ENDBRANCH   4  11
TORSDOF 2
