REMARK  1 active torsions:
REMARK  status: ('A' for Active; 'I' for Inactive)
REMARK    1  A    between atoms: C4_4  and  C7_7 
ROOT
ATOM      1  C1  <0> d           1.208  -0.682  -0.013  0.00  0.00    -0.083 A 
ATOM      2  C2  <0> d           0.002  -0.004   0.002  0.00  0.00    -0.082 A 
ATOM      3  C3  <0> d          -0.017   1.375   0.010  0.00  0.00    -0.070 A 
ATOM      4  C4  <0> d           1.184   2.087   0.002  0.00  0.00    -0.001 A 
ATOM      5  C5  <0> d           2.397   1.396  -0.012  0.00  0.00    -0.070 A 
ATOM      6  C6  <0> d           2.402   0.016  -0.020  0.00  0.00    -0.082 A 
ATOM      7  H1  <0> d           1.217  -1.762  -0.019  0.00  0.00     0.083 H 
ATOM      8  H2  <0> d          -0.926  -0.556   0.008  0.00  0.00     0.083 H 
ATOM      9  H3  <0> d          -0.959   1.904   0.017  0.00  0.00     0.084 H 
ATOM     10  H4  <0> d           3.330   1.940  -0.018  0.00  0.00     0.084 H 
ATOM     11  H5  <0> d           3.340  -0.519  -0.032  0.00  0.00     0.083 H 
ENDROOT
BRANCH   4  12
ATOM     12  C7  <0> d           1.172   3.565   0.009  0.00  0.00     0.104 A 
ATOM     13  O1  <0> d           0.080   4.361   0.024  0.00  0.00    -0.302 OA
ATOM     14  C9  <0> d           0.503   5.632   0.027  0.00  0.00     0.103 A 
ATOM     15  N1  <0> d           1.806   5.647   0.015  0.00  0.00    -0.246 NA
ATOM     16  H7  <0> d          -0.134   6.505   0.038  0.00  0.00     0.155 H 
ATOM     17  C8  <0> d           2.255   4.383   0.009  0.00  0.00     0.037 A 
ATOM     18  H6  <0> d           3.290   4.073   0.003  0.00  0.00     0.119 H 
ENDBRANCH   4  12
TORSDOF 1
