REMARK  0 active torsions:
REMARK  status: ('A' for Active; 'I' for Inactive)
ROOT
ATOM      1  C1  <0> d           2.276   1.351  -0.012  0.00  0.00     0.093 A 
ATOM      2  N1  <0> d           1.122   1.996   0.002  0.00  0.00    -0.211 NA
ATOM      3  C2  <0> d          -0.016   1.319   0.009  0.00  0.00     0.227 A 
ATOM      4  N2  <0> d           0.002  -0.004   0.002  0.00  0.00    -0.187 NA
ATOM      5  C3  <0> d           1.157  -0.649  -0.013  0.00  0.00     0.227 A 
ATOM      6  N3  <0> d           2.294   0.029  -0.020  0.00  0.00    -0.211 NA
ATOM      7 Cl1  <0> d           1.182  -2.385  -0.023  0.00  0.00    -0.041 Cl
ATOM      8 Cl2  <0> d          -1.531   2.167   0.021  0.00  0.00    -0.041 Cl
ATOM      9  H1  <0> d           3.203   1.904  -0.019  0.00  0.00     0.146 H 
ENDROOT
TORSDOF 0
