REMARK  3 active torsions:
REMARK  status: ('A' for Active; 'I' for Inactive)
REMARK    1  A    between atoms: C1_1  and  C2_2 
REMARK    2  A    between atoms: C2_2  and  C3_3 
REMARK    3  A    between atoms: C3_3  and  C4_4 
ROOT
ATOM      1  C4  <0> d          -1.702   5.341   0.045  0.00  0.00     0.010 A 
ATOM      2  C5  <0> d          -2.295   4.137   0.045  0.00  0.00    -0.049 A 
ATOM      3  C6  <0> d          -1.228   3.133   0.030  0.00  0.00    -0.008 A 
ATOM      4  C7  <0> d          -1.208   1.737   0.017  0.00  0.00    -0.071 A 
ATOM      5  C8  <0> d          -0.013   1.076   0.008  0.00  0.00    -0.082 A 
ATOM      6  C9  <0> d           1.183   1.781   0.000  0.00  0.00    -0.081 A 
ATOM      7  C10 <0> d           1.187   3.158   0.007  0.00  0.00    -0.056 A 
ATOM      8  C11 <0> d          -0.018   3.852   0.021  0.00  0.00     0.042 A 
ATOM      9  N1  <0> d          -0.342   5.191   0.031  0.00  0.00    -0.359 N 
ATOM     10  H1  <0> d           0.299   5.919   0.029  0.00  0.00     0.166 HD
ATOM     11  H9  <0> d          -3.358   3.944   0.054  0.00  0.00     0.087 H 
ATOM     12  H10 <0> d          -2.134   1.182   0.019  0.00  0.00     0.084 H 
ATOM     13  H11 <0> d           0.002  -0.004   0.002  0.00  0.00     0.083 H 
ATOM     14  H12 <0> d           2.120   1.244  -0.011  0.00  0.00     0.083 H 
ATOM     15  H13 <0> d           2.123   3.698   0.000  0.00  0.00     0.086 H 
ENDROOT
BRANCH   1  16
ATOM     16  C3  <0> d          -2.426   6.662   0.059  0.00  0.00    -0.027 C 
ATOM     17  H7  <0> d          -3.333   6.573   0.656  0.00  0.00     0.042 H 
ATOM     18  H8  <0> d          -1.780   7.426   0.490  0.00  0.00     0.042 H 
BRANCH  16  19
ATOM     19  C2  <0> d          -2.796   7.056  -1.373  0.00  0.00    -0.064 C 
ATOM     20  H5  <0> d          -1.889   7.144  -1.971  0.00  0.00     0.033 H 
ATOM     21  H6  <0> d          -3.442   6.291  -1.805  0.00  0.00     0.033 H 
BRANCH  19  22
ATOM     22  C1  <0> d          -3.531   8.397  -1.360  0.00  0.00    -0.076 C 
ATOM     23  H2  <0> d          -3.795   8.677  -2.380  0.00  0.00     0.027 H 
ATOM     24  H3  <0> d          -4.438   8.308  -0.762  0.00  0.00     0.027 H 
ATOM     25  H4  <0> d          -2.885   9.161  -0.928  0.00  0.00     0.027 H 
ENDBRANCH  19  22
ENDBRANCH  16  19
ENDBRANCH   1  16
TORSDOF 3
