REMARK  2 active torsions:
REMARK  status: ('A' for Active; 'I' for Inactive)
REMARK    1  A    between atoms: C3_5  and  N4_10 
REMARK    2  A    between atoms: N2_6  and  C5_9 
ROOT
ATOM      1  H1  <0> d           4.380   0.065  -0.039  0.00  0.00     0.188 HD
ATOM      2  N1  <0> d           3.570  -0.469  -0.034  0.00  0.00    -0.282 NA
ATOM      3  C1  <0> d           2.388   0.123  -0.020  0.00  0.00     0.146 A 
ATOM      4  C2  <0> d           1.201  -0.650  -0.013  0.00  0.00     0.005 A 
ATOM      5  C3  <0> d           0.002  -0.004   0.002  0.00  0.00     0.105 A 
ATOM      6  N2  <0> d          -0.017   1.368   0.010  0.00  0.00    -0.332 N 
ATOM      7  C4  <0> d           1.142   2.073   0.002  0.00  0.00     0.069 A 
ATOM      8  N3  <0> d           2.300   1.479  -0.012  0.00  0.00    -0.225 NA
ATOM      9  H2  <0> d           1.246  -1.730  -0.019  0.00  0.00     0.095 H 
ATOM     10  H3  <0> d           1.103   3.152   0.008  0.00  0.00     0.143 H 
ENDROOT
BRANCH   6  11
ATOM     11  C5  <0> d          -1.298   2.077   0.019  0.00  0.00    -0.012 C 
ATOM     12  H4  <0> d          -1.611   2.247   1.050  0.00  0.00     0.057 H 
ATOM     13  H5  <0> d          -1.188   3.034  -0.490  0.00  0.00     0.057 H 
ATOM     14  H6  <0> d          -2.050   1.477  -0.494  0.00  0.00     0.057 H 
ENDBRANCH   6  11
BRANCH   5  15
ATOM     15  N4  <0> d          -1.176  -0.718   0.010  0.00  0.00    -0.385 N 
ATOM     16  H7  <0> d          -2.026  -0.252   0.021  0.00  0.00     0.157 HD
ATOM     17  H8  <0> d          -1.155  -1.688   0.004  0.00  0.00     0.157 HD
ENDBRANCH   5  15
TORSDOF 2
