REMARK  2 active torsions:
REMARK  status: ('A' for Active; 'I' for Inactive)
REMARK    1  A    between atoms: C1_1  and  O1_2 
REMARK    2  A    between atoms: O1_2  and  C2_3 
ROOT
ATOM      1  C2  <0> d           0.002  -0.004   0.002  0.00  0.00     0.267 A 
ATOM      2  N1  <0> d           1.166  -0.634  -0.018  0.00  0.00    -0.219 NA
ATOM      3  C3  <0> d           1.220  -1.956  -0.021  0.00  0.00     0.008 A 
ATOM      4  C4  <0> d           0.038  -2.680  -0.014  0.00  0.00    -0.049 A 
ATOM      5  C5  <0> d          -1.162  -1.988   0.002  0.00  0.00     0.008 A 
ATOM      6  N2  <0> d          -1.144  -0.665   0.009  0.00  0.00    -0.219 NA
ATOM      7  H4  <0> d           2.173  -2.464  -0.034  0.00  0.00     0.115 H 
ATOM      8  H5  <0> d           0.053  -3.760  -0.020  0.00  0.00     0.087 H 
ATOM      9  H6  <0> d          -2.101  -2.522   0.009  0.00  0.00     0.115 H 
ENDROOT
BRANCH   1  10
ATOM     10  O1  <0> d          -0.016   1.350   0.009  0.00  0.00    -0.324 OA
BRANCH  10  11
ATOM     11  C1  <0> d           1.248   2.016   0.001  0.00  0.00     0.013 C 
ATOM     12  H1  <0> d           1.800   1.736  -0.896  0.00  0.00     0.067 H 
ATOM     13  H2  <0> d           1.091   3.095   0.008  0.00  0.00     0.067 H 
ATOM     14  H3  <0> d           1.817   1.726   0.884  0.00  0.00     0.067 H 
ENDBRANCH  10  11
ENDBRANCH   1  10
TORSDOF 2
