REMARK  1 active torsions:
REMARK  status: ('A' for Active; 'I' for Inactive)
REMARK    1  A    between atoms: C1_1  and  C2_2 
ROOT
ATOM      1  C2  <0> d           0.002  -0.004   0.002  0.00  0.00     0.037 A 
ATOM      2  C3  <0> d           0.006  -0.708  -1.159  0.00  0.00    -0.020 A 
ATOM      3  S1  <0> d           0.032  -2.379  -0.531  0.00  0.00    -0.092 SA
ATOM      4  C4  <0> d           0.036  -2.009   1.111  0.00  0.00     0.040 A 
ATOM      5  N1  <0> d           0.023  -0.699   1.122  0.00  0.00    -0.258 NA
ATOM      6  H4  <0> d          -0.004  -0.354  -2.180  0.00  0.00     0.098 H 
ATOM      7  H5  <0> d           0.049  -2.687   1.951  0.00  0.00     0.126 H 
ENDROOT
BRANCH   1   8
ATOM      8  C1  <0> d          -0.018   1.503   0.010  0.00  0.00    -0.035 C 
ATOM      9  H1  <0> d           1.004   1.880   0.003  0.00  0.00     0.035 H 
ATOM     10  H2  <0> d          -0.545   1.864  -0.873  0.00  0.00     0.035 H 
ATOM     11  H3  <0> d          -0.529   1.854   0.907  0.00  0.00     0.035 H 
ENDBRANCH   1   8
TORSDOF 1
