REMARK  2 active torsions:
REMARK  status: ('A' for Active; 'I' for Inactive)
REMARK    1  A    between atoms: C1_1  and  N1_2 
REMARK    2  A    between atoms: C3_4  and  C6_9 
ROOT
ATOM      1  N1  <0> d           0.002  -0.004   0.002  0.00  0.00    -0.356 N 
ATOM      2  C2  <0> d           1.377  -0.519  -0.004  0.00  0.00     0.010 C 
ATOM      3  C3  <0> d           2.261   0.673  -0.435  0.00  0.00     0.054 C 
ATOM      4  H1  <0> d           2.417   0.672  -1.514  0.00  0.00     0.059 H 
ATOM      5  C4  <0> d           1.397   1.879  -0.001  0.00  0.00     0.023 C 
ATOM      6  C5  <0> d          -0.016   1.340   0.009  0.00  0.00     0.220 C 
ATOM      7  O1  <0> d          -1.020   2.021   0.018  0.00  0.00    -0.273 OA
ATOM      8  H5  <0> d           1.658  -0.855   0.994  0.00  0.00     0.065 H 
ATOM      9  H6  <0> d           1.470  -1.336  -0.719  0.00  0.00     0.065 H 
ATOM     10  H7  <0> d           1.490   2.693  -0.721  0.00  0.00     0.048 H 
ATOM     11  H8  <0> d           1.685   2.216   0.995  0.00  0.00     0.048 H 
ENDROOT
BRANCH   1  12
ATOM     12  C1  <0> d          -1.196  -0.847  -0.000  0.00  0.00    -0.016 C 
ATOM     13  H2  <0> d          -2.085  -0.216   0.006  0.00  0.00     0.056 H 
ATOM     14  H3  <0> d          -1.200  -1.471  -0.894  0.00  0.00     0.056 H 
ATOM     15  H4  <0> d          -1.196  -1.482   0.886  0.00  0.00     0.056 H 
ENDBRANCH   1  12
BRANCH   3  16
ATOM     16  C6  <0> d           3.577   0.660   0.297  0.00  0.00     0.179 C 
ATOM     17  O2  <0> d           3.814  -0.212   1.099  0.00  0.00    -0.648 OA
ATOM     18  O3  <0> d           4.487   1.618   0.059  0.00  0.00    -0.648 OA
ENDBRANCH   3  16
TORSDOF 2
