REMARK  0 active torsions:
REMARK  status: ('A' for Active; 'I' for Inactive)
ROOT
ATOM      1  C1  <0> d          -0.013   1.076   0.008  0.00  0.00    -0.003 A 
ATOM      2  C2  <0> d          -1.218   1.762   0.017  0.00  0.00     0.078 A 
ATOM      3  C3  <0> d          -1.188   3.152   0.029  0.00  0.00     0.155 A 
ATOM      4  C4  <0> d           0.035   3.799   0.021  0.00  0.00     0.044 A 
ATOM      5  N1  <0> d           1.162   3.114   0.007  0.00  0.00    -0.230 NA
ATOM      6  C5  <0> d           1.172   1.793   0.001  0.00  0.00     0.211 A 
ATOM      7  F1  <0> d           2.351   1.135  -0.014  0.00  0.00    -0.184 F 
ATOM      8  F2  <0> d          -2.337   3.861   0.043  0.00  0.00    -0.203 F 
ATOM      9 Cl1  <0> d          -2.728   0.905   0.020  0.00  0.00    -0.081 Cl
ATOM     10  H1  <0> d           0.002  -0.004   0.002  0.00  0.00     0.093 H 
ATOM     11  H2  <0> d           0.066   4.879   0.027  0.00  0.00     0.119 H 
ENDROOT
TORSDOF 0
