REMARK  4 active torsions:
REMARK  status: ('A' for Active; 'I' for Inactive)
REMARK    1  A    between atoms: C3_3  and  C4_4 
REMARK    2  A    between atoms: C4_4  and  C5_5 
REMARK    3  A    between atoms: C4_4  and  C8_8 
REMARK    4  A    between atoms: C4_4  and  O1_11 
ROOT
ATOM      1  C4  <0> d           0.002  -0.004   0.002  0.00  0.00     0.069 C 
ENDROOT
BRANCH   1   2
ATOM      2  C3  <0> d           0.025   1.511  -0.207  0.00  0.00    -0.024 A 
ATOM      3  C1  <0> d          -1.065   2.336   0.480  0.00  0.00    -0.059 A 
ATOM      4  C2  <0> d          -1.104   2.127  -1.036  0.00  0.00    -0.059 A 
ATOM      5  H1  <0> d          -1.798   1.799   1.082  0.00  0.00     0.033 H 
ATOM      6  H2  <0> d          -0.791   3.327   0.845  0.00  0.00     0.033 H 
ATOM      7  H3  <0> d          -0.857   2.980  -1.668  0.00  0.00     0.033 H 
ATOM      8  H4  <0> d          -1.863   1.453  -1.432  0.00  0.00     0.033 H 
ATOM      9  H5  <0> d           1.015   1.959  -0.295  0.00  0.00     0.044 H 
ENDBRANCH   1   2
BRANCH   1  10
ATOM     10  C5  <0> d           1.132  -0.405   0.953  0.00  0.00    -0.024 A 
ATOM     11  C7  <0> d           2.551   0.040   0.591  0.00  0.00    -0.059 A 
ATOM     12  C6  <0> d           1.811   0.709   1.752  0.00  0.00    -0.059 A 
ATOM     13  H9  <0> d           3.369  -0.637   0.839  0.00  0.00     0.033 H 
ATOM     14  H10 <0> d           2.679   0.617  -0.325  0.00  0.00     0.033 H 
ATOM     15  H7  <0> d           1.453   1.727   1.601  0.00  0.00     0.033 H 
ATOM     16  H8  <0> d           2.143   0.472   2.763  0.00  0.00     0.033 H 
ATOM     17  H6  <0> d           1.017  -1.374   1.438  0.00  0.00     0.044 H 
ENDBRANCH   1  10
BRANCH   1  18
ATOM     18  C8  <0> d          -1.342  -0.415   0.606  0.00  0.00    -0.024 A 
ATOM     19  C10 <0> d          -1.515  -1.879   1.016  0.00  0.00    -0.059 A 
ATOM     20  C9  <0> d          -1.364  -0.796   2.087  0.00  0.00    -0.059 A 
ATOM     21  H14 <0> d          -2.501  -2.325   0.887  0.00  0.00     0.033 H 
ATOM     22  H15 <0> d          -0.670  -2.549   0.856  0.00  0.00     0.033 H 
ATOM     23  H12 <0> d          -0.421  -0.754   2.632  0.00  0.00     0.033 H 
ATOM     24  H13 <0> d          -2.252  -0.530   2.662  0.00  0.00     0.033 H 
ATOM     25  H11 <0> d          -2.215   0.102   0.206  0.00  0.00     0.044 H 
ENDBRANCH   1  18
BRANCH   1  26
ATOM     26  O1  <0> d           0.181  -0.661  -1.254  0.00  0.00    -0.389 OA
ATOM     27  H16 <0> d          -0.501  -0.453  -1.908  0.00  0.00     0.210 HD
ENDBRANCH   1  26
TORSDOF 4
