REMARK  2 active torsions:
REMARK  status: ('A' for Active; 'I' for Inactive)
REMARK    1  A    between atoms: C1_1  and  C2_2 
REMARK    2  A    between atoms: C6_7  and  N2_8 
ROOT
ATOM      1  C2  <0> d           0.002  -0.004   0.002  0.00  0.00    -0.018 A 
ATOM      2  C3  <0> d           0.006  -0.696  -1.190  0.00  0.00     0.012 A 
ATOM      3  N1  <0> d           0.024  -2.016  -1.207  0.00  0.00    -0.248 NA
ATOM      4  C4  <0> d           0.040  -2.728  -0.094  0.00  0.00     0.127 A 
ATOM      5  C5  <0> d           0.037  -2.110   1.140  0.00  0.00    -0.018 A 
ATOM      6  C6  <0> d           0.023  -0.717   1.201  0.00  0.00     0.036 A 
ATOM      7 Cl1  <0> d           0.063  -4.461  -0.186  0.00  0.00    -0.062 Cl
ATOM      8  H4  <0> d          -0.006  -0.152  -2.123  0.00  0.00     0.115 H 
ATOM      9  H5  <0> d           0.049  -2.698   2.046  0.00  0.00     0.091 H 
ENDROOT
BRANCH   1  10
ATOM     10  C1  <0> d          -0.018   1.503   0.010  0.00  0.00    -0.048 C 
ATOM     11  H1  <0> d           1.004   1.880   0.003  0.00  0.00     0.033 H 
ATOM     12  H2  <0> d          -0.545   1.864  -0.873  0.00  0.00     0.033 H 
ATOM     13  H3  <0> d          -0.529   1.854   0.907  0.00  0.00     0.033 H 
ENDBRANCH   1  10
BRANCH   6  14
ATOM     14  N2  <0> d           0.025  -0.056   2.425  0.00  0.00    -0.399 N 
ATOM     15  H6  <0> d           0.012   0.914   2.453  0.00  0.00     0.156 HD
ATOM     16  H7  <0> d           0.040  -0.564   3.251  0.00  0.00     0.156 HD
ENDBRANCH   6  14
TORSDOF 2
