REMARK  0 active torsions:
REMARK  status: ('A' for Active; 'I' for Inactive)
ROOT
ATOM      1  C1  <0> d           1.164   2.448   0.004  0.00  0.00    -0.039 A 
ATOM      2  C2  <0> d           1.094   3.846   0.012  0.00  0.00     0.063 A 
ATOM      3  C3  <0> d          -0.161   4.459   0.027  0.00  0.00     0.022 A 
ATOM      4  N1  <0> d          -1.260   3.734   0.033  0.00  0.00    -0.270 NA
ATOM      5  C4  <0> d          -1.226   2.415   0.021  0.00  0.00     0.023 A 
ATOM      6  C5  <0> d          -0.021   1.732   0.012  0.00  0.00     0.053 A 
ATOM      7 Cl1  <0> d           0.002  -0.004   0.002  0.00  0.00    -0.083 Cl
ATOM      8  C6  <0> d           2.289   4.635   0.004  0.00  0.00     0.101 C 
ATOM      9  N2  <0> d           3.237   5.261  -0.002  0.00  0.00    -0.191 NA
ATOM     10  H1  <0> d           2.117   1.941  -0.007  0.00  0.00     0.088 H 
ATOM     11  H2  <0> d          -0.230   5.537   0.032  0.00  0.00     0.117 H 
ATOM     12  H3  <0> d          -2.152   1.860   0.022  0.00  0.00     0.117 H 
ENDROOT
TORSDOF 0
