REMARK  4 active torsions:
REMARK  status: ('A' for Active; 'I' for Inactive)
REMARK    1  A    between atoms: C1_1  and  N6_10 
REMARK    2  A    between atoms: C2_2  and  N5_9 
REMARK    3  A    between atoms: C3_4  and  N4_8 
REMARK    4  A    between atoms: C4_6  and  N3_7 
ROOT
ATOM      1  C1  <0> d          -2.428   0.940   0.019  0.00  0.00     0.119 A 
ATOM      2  C2  <0> d          -3.620   1.666   0.028  0.00  0.00     0.170 A 
ATOM      3  N1  <0> d          -3.567   2.996   0.035  0.00  0.00    -0.043 NA
ATOM      4  C3  <0> d          -2.404   3.629   0.033  0.00  0.00     0.724 A 
ATOM      5  N2  <0> d          -1.253   2.975   0.030  0.00  0.00    -0.043 NA
ATOM      6  C4  <0> d          -1.224   1.644   0.017  0.00  0.00     0.170 A 
ENDROOT
BRANCH   1   7
ATOM      7  N6  <0> d          -2.441  -0.468   0.012  0.00  0.00    -0.393 N 
ATOM      8  H7  <0> d          -1.605  -0.961   0.005  0.00  0.00     0.156 HD
ATOM      9  H8  <0> d          -3.285  -0.945   0.013  0.00  0.00     0.156 HD
ENDBRANCH   1   7
BRANCH   6  10
ATOM     10  N3  <0> d          -0.011   0.966   0.007  0.00  0.00    -0.382 N 
ATOM     11  H1  <0> d           0.002  -0.004   0.002  0.00  0.00     0.157 HD
ATOM     12  H2  <0> d           0.822   1.462   0.002  0.00  0.00     0.157 HD
ENDBRANCH   6  10
BRANCH   2  13
ATOM     13  N5  <0> d          -4.845   1.010   0.031  0.00  0.00    -0.382 N 
ATOM     14  H5  <0> d          -4.875   0.040   0.026  0.00  0.00     0.157 HD
ATOM     15  H6  <0> d          -5.669   1.521   0.038  0.00  0.00     0.157 HD
ENDBRANCH   2  13
BRANCH   4  16
ATOM     16  N4  <0> d          -2.391   5.016   0.041  0.00  0.00    -0.231 N 
ATOM     17  H3  <0> d          -3.227   5.508   0.047  0.00  0.00     0.174 HD
ATOM     18  H4  <0> d          -1.547   5.493   0.039  0.00  0.00     0.174 HD
ENDBRANCH   4  16
TORSDOF 4
