REMARK  3 active torsions:
REMARK  status: ('A' for Active; 'I' for Inactive)
REMARK    1  A    between atoms: C1_1  and  C2_2 
REMARK    2  A    between atoms: C4_4  and  O2_9 
REMARK    3  A    between atoms: C5_6  and  O1_8 
ROOT
ATOM      1  C2  <0> d           2.394   0.014  -0.021  0.00  0.00    -0.054 A 
ATOM      2  C3  <0> d           1.205  -0.696  -0.013  0.00  0.00    -0.026 A 
ATOM      3  C4  <0> d           0.002  -0.004   0.002  0.00  0.00     0.165 A 
ATOM      4  N1  <0> d          -0.016   1.319   0.009  0.00  0.00    -0.201 NA
ATOM      5  C5  <0> d           1.102   2.027   0.002  0.00  0.00     0.165 A 
ATOM      6  C6  <0> d           2.339   1.399  -0.013  0.00  0.00    -0.026 A 
ATOM      7  H4  <0> d           1.213  -1.776  -0.019  0.00  0.00     0.091 H 
ATOM      8  H5  <0> d           3.248   1.982  -0.018  0.00  0.00     0.091 H 
ENDROOT
BRANCH   1   9
ATOM      9  C1  <0> d           3.720  -0.704  -0.038  0.00  0.00    -0.051 C 
ATOM     10  H1  <0> d           4.029  -0.871  -1.069  0.00  0.00     0.033 H 
ATOM     11  H2  <0> d           4.468  -0.097   0.472  0.00  0.00     0.033 H 
ATOM     12  H3  <0> d           3.620  -1.662   0.472  0.00  0.00     0.033 H 
ENDBRANCH   1   9
BRANCH   5  13
ATOM     13  O1  <0> d           1.038   3.382   0.010  0.00  0.00    -0.345 OA
ATOM     14  H6  <0> d           1.028   3.771   0.896  0.00  0.00     0.219 HD
ENDBRANCH   5  13
BRANCH   3  15
ATOM     15  O2  <0> d          -1.168  -0.691   0.009  0.00  0.00    -0.345 OA
ATOM     16  H7  <0> d          -1.515  -0.886  -0.872  0.00  0.00     0.219 HD
ENDBRANCH   3  15
TORSDOF 3
