REMARK  3 active torsions:
REMARK  status: ('A' for Active; 'I' for Inactive)
REMARK    1  A    between atoms: C3_3  and  C6_7 
REMARK    2  A    between atoms: C6_7  and  C7_9 
REMARK    3  A    between atoms: C6_7  and  O3_12 
ROOT
ATOM      1  C1  <0> d          -0.017   1.378   0.010  0.00  0.00    -0.065 A 
ATOM      2  C2  <0> d           1.185   2.070   0.002  0.00  0.00    -0.071 A 
ATOM      3  C3  <0> d           2.365   1.343  -0.013  0.00  0.00    -0.002 A 
ATOM      4  C4  <0> d           2.305  -0.038  -0.020  0.00  0.00     0.011 A 
ATOM      5  N1  <0> d           1.144  -0.663  -0.013  0.00  0.00    -0.272 NA
ATOM      6  C5  <0> d           0.002  -0.004   0.002  0.00  0.00     0.002 A 
ATOM      7  H2  <0> d          -0.955   1.912   0.026  0.00  0.00     0.085 H 
ATOM      8  H3  <0> d           1.201   3.150   0.007  0.00  0.00     0.084 H 
ATOM      9  H4  <0> d           3.220  -0.612  -0.032  0.00  0.00     0.115 H 
ATOM     10  H5  <0> d          -0.929  -0.550   0.008  0.00  0.00     0.114 H 
ENDROOT
BRANCH   3  11
ATOM     11  C6  <0> d           3.696   2.049  -0.023  0.00  0.00     0.145 C 
ATOM     12  H1  <0> d           3.562   3.074  -0.368  0.00  0.00     0.108 H 
BRANCH  11  13
ATOM     13  C7  <0> d           4.269   2.059   1.371  0.00  0.00     0.207 C 
ATOM     14  O1  <0> d           5.299   1.452   1.611  0.00  0.00    -0.646 OA
ATOM     15  O2  <0> d           3.703   2.674   2.258  0.00  0.00    -0.646 OA
ENDBRANCH  11  13
BRANCH  11  16
ATOM     16  O3  <0> d           4.592   1.365  -0.901  0.00  0.00    -0.380 OA
ATOM     17  H6  <0> d           4.759   0.445  -0.654  0.00  0.00     0.211 HD
ENDBRANCH  11  16
ENDBRANCH   3  11
TORSDOF 3
