REMARK  4 active torsions:
REMARK  status: ('A' for Active; 'I' for Inactive)
REMARK    1  A    between atoms: C1_1  and  C2_2 
REMARK    2  A    between atoms: C4_4  and  O1_11 
REMARK    3  A    between atoms: C6_7  and  C8_9 
REMARK    4  A    between atoms: C6_7  and  C9_10 
ROOT
ATOM      1  C2  <0> d          -0.952   3.725   0.043  0.00  0.00    -0.084 C 
ATOM      2  C3  <0> d          -1.003   3.058   1.151  0.00  0.00    -0.074 C 
ATOM      3  C4  <0> d          -0.737   1.583   1.260  0.00  0.00     0.053 C 
ATOM      4  H1  <0> d          -1.685   1.055   1.364  0.00  0.00     0.089 H 
ATOM      5  C5  <0> d          -0.013   1.086   0.008  0.00  0.00    -0.031 C 
ATOM      6  C6  <0> d          -0.763   1.598  -1.228  0.00  0.00    -0.042 C 
ATOM      7  C7  <0> d          -0.615   3.120  -1.288  0.00  0.00    -0.039 C 
ATOM      8  H5  <0> d          -1.249   3.595   2.055  0.00  0.00     0.081 H 
ATOM      9  H6  <0> d           0.002  -0.004   0.002  0.00  0.00     0.038 H 
ATOM     10  H7  <0> d           1.009   1.466   0.000  0.00  0.00     0.038 H 
ATOM     11  H8  <0> d           0.413   3.373  -1.550  0.00  0.00     0.040 H 
ATOM     12  H9  <0> d          -1.289   3.519  -2.045  0.00  0.00     0.040 H 
ENDROOT
BRANCH   6  13
ATOM     13  C8  <0> d          -0.164   0.973  -2.489  0.00  0.00    -0.069 C 
ATOM     14  H10 <0> d          -0.254  -0.112  -2.435  0.00  0.00     0.028 H 
ATOM     15  H11 <0> d          -0.699   1.339  -3.366  0.00  0.00     0.028 H 
ATOM     16  H12 <0> d           0.889   1.247  -2.566  0.00  0.00     0.028 H 
ENDBRANCH   6  13
BRANCH   6  17
ATOM     17  C9  <0> d          -2.244   1.230  -1.120  0.00  0.00    -0.069 C 
ATOM     18  H13 <0> d          -2.667   1.685  -0.225  0.00  0.00     0.028 H 
ATOM     19  H14 <0> d          -2.774   1.595  -1.999  0.00  0.00     0.028 H 
ATOM     20  H15 <0> d          -2.345   0.146  -1.059  0.00  0.00     0.028 H 
ENDBRANCH   6  17
BRANCH   3  21
ATOM     21  O1  <0> d           0.072   1.327   2.410  0.00  0.00    -0.392 OA
ATOM     22  H16 <0> d          -0.324   1.617   3.243  0.00  0.00     0.210 HD
ENDBRANCH   3  21
BRANCH   1  23
ATOM     23  C1  <0> d          -1.249   5.202   0.094  0.00  0.00    -0.055 C 
ATOM     24  H2  <0> d          -2.317   5.363  -0.058  0.00  0.00     0.033 H 
ATOM     25  H3  <0> d          -0.956   5.598   1.066  0.00  0.00     0.033 H 
ATOM     26  H4  <0> d          -0.690   5.712  -0.690  0.00  0.00     0.033 H 
ENDBRANCH   1  23
TORSDOF 4
