REMARK  1 active torsions:
REMARK  status: ('A' for Active; 'I' for Inactive)
REMARK    1  A    between atoms: C3_3  and  O3_11 
ROOT
ATOM      1  C1  <0> d           0.002  -0.004   0.002  0.00  0.00    -0.077 A 
ATOM      2  C2  <0> d           1.207  -0.682  -0.013  0.00  0.00    -0.048 A 
ATOM      3  C3  <0> d           2.400   0.023  -0.018  0.00  0.00     0.101 A 
ATOM      4  C4  <0> d           2.385   1.414  -0.011  0.00  0.00     0.135 A 
ATOM      5  C5  <0> d           1.174   2.091   0.002  0.00  0.00     0.104 A 
ATOM      6  C6  <0> d          -0.017   1.377   0.010  0.00  0.00    -0.048 A 
ATOM      7  O1  <0> d           1.136   3.452   0.002  0.00  0.00    -0.346 OA
ATOM      8  C7  <0> d           2.342   4.129   0.373  0.00  0.00     0.046 C 
ATOM      9  C8  <0> d           3.510   3.478  -0.381  0.00  0.00     0.046 C 
ATOM     10  O2  <0> d           3.565   2.095  -0.012  0.00  0.00    -0.344 OA
ATOM     11  H1  <0> d          -0.926  -0.555   0.008  0.00  0.00     0.083 H 
ATOM     12  H2  <0> d           1.218  -1.762  -0.020  0.00  0.00     0.087 H 
ATOM     13  H3  <0> d          -0.960   1.903   0.017  0.00  0.00     0.087 H 
ATOM     14  H4  <0> d           2.500   4.037   1.447  0.00  0.00     0.078 H 
ATOM     15  H5  <0> d           2.271   5.182   0.101  0.00  0.00     0.078 H 
ATOM     16  H6  <0> d           4.444   3.969  -0.106  0.00  0.00     0.078 H 
ATOM     17  H7  <0> d           3.350   3.566  -1.455  0.00  0.00     0.078 H 
ENDROOT
BRANCH   3  18
ATOM     18  O3  <0> d           3.585  -0.645  -0.033  0.00  0.00    -0.358 OA
ATOM     19  H8  <0> d           3.920  -0.833  -0.920  0.00  0.00     0.217 HD
ENDBRANCH   3  18
TORSDOF 1
