REMARK  3 active torsions:
REMARK  status: ('A' for Active; 'I' for Inactive)
REMARK    1  A    between atoms: C1_1  and  C2_2 
REMARK    2  A    between atoms: C6_7  and  C7_9 
REMARK    3  A    between atoms: C7_9  and  C8_10 
ROOT
ATOM      1  C2  <0> d          -0.729   1.579   1.267  0.00  0.00    -0.054 C 
ATOM      2  H1  <0> d          -0.760   2.669   1.276  0.00  0.00     0.040 H 
ATOM      3  C3  <0> d          -2.162   1.010   1.317  0.00  0.00    -0.062 C 
ATOM      4  C4  <0> d          -2.401   0.719   2.820  0.00  0.00    -0.064 C 
ATOM      5  C5  <0> d          -1.022   0.195   3.292  0.00  0.00    -0.061 C 
ATOM      6  C6  <0> d          -0.005   1.062   2.522  0.00  0.00    -0.042 C 
ATOM      7  H2  <0> d           0.315   1.901   3.141  0.00  0.00     0.041 H 
ATOM      8  H6  <0> d          -2.878   1.745   0.951  0.00  0.00     0.033 H 
ATOM      9  H7  <0> d          -2.227   0.090   0.736  0.00  0.00     0.033 H 
ATOM     10  H8  <0> d          -3.169  -0.044   2.949  0.00  0.00     0.033 H 
ATOM     11  H9  <0> d          -2.672   1.630   3.354  0.00  0.00     0.033 H 
ATOM     12  H10 <0> d          -0.903  -0.856   3.030  0.00  0.00     0.033 H 
ATOM     13  H11 <0> d          -0.908   0.337   4.367  0.00  0.00     0.033 H 
ENDROOT
BRANCH   6  14
ATOM     14  C7  <0> d           1.206   0.217   2.119  0.00  0.00     0.019 C 
ATOM     15  H12 <0> d           0.866  -0.678   1.598  0.00  0.00     0.049 H 
ATOM     16  H13 <0> d           1.851   0.798   1.460  0.00  0.00     0.049 H 
BRANCH  14  17
ATOM     17  C8  <0> d           1.975  -0.180   3.352  0.00  0.00     0.172 C 
ATOM     18  O1  <0> d           1.594   0.176   4.442  0.00  0.00    -0.648 OA
ATOM     19  O2  <0> d           3.083  -0.929   3.240  0.00  0.00    -0.648 OA
ENDBRANCH  14  17
ENDBRANCH   6  14
BRANCH   1  20
ATOM     20  C1  <0> d          -0.013   1.086   0.008  0.00  0.00    -0.073 C 
ATOM     21  H3  <0> d           0.002  -0.004   0.002  0.00  0.00     0.028 H 
ATOM     22  H4  <0> d           1.010   1.463   0.000  0.00  0.00     0.028 H 
ATOM     23  H5  <0> d          -0.540   1.447  -0.875  0.00  0.00     0.028 H 
ENDBRANCH   1  20
TORSDOF 3
