REMARK  1 active torsions:
REMARK  status: ('A' for Active; 'I' for Inactive)
REMARK    1  A    between atoms: C4_7  and  C5_8 
REMARK       I    between atoms: C5_8  and  N3_10 
ROOT
ATOM      1  C1  <0> d          -1.323   3.481   0.027  0.00  0.00    -0.043 A 
ATOM      2  C2  <0> d          -2.532   4.112   0.036  0.00  0.00    -0.012 A 
ATOM      3  C3  <0> d          -3.696   3.312   0.038  0.00  0.00     0.285 A 
ATOM      4  O1  <0> d          -4.799   3.833   0.046  0.00  0.00    -0.265 OA
ATOM      5  N1  <0> d          -3.580   1.971   0.030  0.00  0.00    -0.106 NA
ATOM      6  N2  <0> d          -2.435   1.391   0.016  0.00  0.00    -0.141 NA
ATOM      7  C4  <0> d          -1.307   2.066   0.019  0.00  0.00     0.146 A 
ATOM      8  H1  <0> d          -0.403   4.046   0.026  0.00  0.00     0.087 H 
ATOM      9  H2  <0> d          -2.597   5.190   0.042  0.00  0.00     0.092 H 
ENDROOT
BRANCH   7  10
ATOM     10  C5  <0> d          -0.016   1.344   0.009  0.00  0.00     0.269 C 
ATOM     11  O2  <0> d           1.028   1.966   0.003  0.00  0.00    -0.266 OA
ATOM     12  N3  <0> d           0.002  -0.004   0.002  0.00  0.00    -0.365 N 
ATOM     13  H3  <0> d           0.962  -0.541  -0.005  0.00  0.00     0.159 HD
ATOM     14  H4  <0> d          -0.943  -0.567   0.004  0.00  0.00     0.159 HD
ENDBRANCH   7  10
TORSDOF 1
