REMARK  2 active torsions:
REMARK  status: ('A' for Active; 'I' for Inactive)
REMARK    1  A    between atoms: C1_1  and  C3_8 
REMARK    2  A    between atoms: C2_2  and  N4_7 
REMARK       I    between atoms: C3_8  and  N5_10 
ROOT
ATOM      1  C1  <0> d           1.092   1.790   0.001  0.00  0.00     0.192 A 
ATOM      2  C2  <0> d           0.582   3.083   0.012  0.00  0.00     0.179 A 
ATOM      3  N1  <0> d          -0.751   2.954   0.023  0.00  0.00    -0.137 NA
ATOM      4  N2  <0> d          -1.062   1.708   0.016  0.00  0.00    -0.194 N 
ATOM      5  N3  <0> d          -0.011   0.966   0.007  0.00  0.00    -0.148 NA
ATOM      6  H1  <0> d          -2.000   1.359   0.016  0.00  0.00     0.213 HD
ENDROOT
BRANCH   1   7
ATOM      7  C3  <0> d           2.501   1.390  -0.014  0.00  0.00     0.273 C 
ATOM      8  O1  <0> d           3.374   2.238  -0.017  0.00  0.00    -0.266 OA
ATOM      9  N5  <0> d           2.830   0.084  -0.024  0.00  0.00    -0.365 N 
ATOM     10  H4  <0> d           2.135  -0.592  -0.021  0.00  0.00     0.159 HD
ATOM     11  H5  <0> d           3.764  -0.181  -0.033  0.00  0.00     0.159 HD
ENDBRANCH   1   7
BRANCH   2  12
ATOM     12  N4  <0> d           1.307   4.268   0.011  0.00  0.00    -0.381 N 
ATOM     13  H2  <0> d           2.277   4.244   0.002  0.00  0.00     0.157 HD
ATOM     14  H3  <0> d           0.844   5.120   0.019  0.00  0.00     0.157 HD
ENDBRANCH   2  12
TORSDOF 2
