REMARK  2 active torsions:
REMARK  status: ('A' for Active; 'I' for Inactive)
REMARK    1  A    between atoms: C1_1  and  C2_2 
REMARK    2  A    between atoms: C7_10  and  N4_11 
ROOT
ATOM      1  C2  <0> d           2.396  -0.011  -0.020  0.00  0.00    -0.013 A 
ATOM      2  C3  <0> d           1.225  -0.701  -0.013  0.00  0.00    -0.072 A 
ATOM      3  C4  <0> d           0.002  -0.004   0.002  0.00  0.00    -0.066 A 
ATOM      4  C5  <0> d          -0.016   1.344   0.009  0.00  0.00     0.004 A 
ATOM      5  N1  <0> d           1.153   2.053   0.002  0.00  0.00    -0.136 N 
ATOM      6  C6  <0> d           2.366   1.398  -0.013  0.00  0.00     0.178 A 
ATOM      7  N2  <0> d           3.303   2.328  -0.017  0.00  0.00    -0.114 NA
ATOM      8  N3  <0> d           2.758   3.493  -0.006  0.00  0.00     0.044 NA
ATOM      9  C7  <0> d           1.449   3.383   0.006  0.00  0.00     0.724 A 
ATOM     10  H4  <0> d           1.233  -1.780  -0.018  0.00  0.00     0.084 H 
ATOM     11  H5  <0> d          -0.928  -0.553   0.008  0.00  0.00     0.085 H 
ATOM     12  H6  <0> d          -0.961   1.867   0.017  0.00  0.00     0.113 H 
ENDROOT
BRANCH   1  13
ATOM     13  C1  <0> d           3.712  -0.745  -0.037  0.00  0.00    -0.048 C 
ATOM     14  H1  <0> d           3.528  -1.829  -0.041  0.00  0.00     0.033 H 
ATOM     15  H2  <0> d           4.294  -0.475   0.857  0.00  0.00     0.033 H 
ATOM     16  H3  <0> d           4.276  -0.466  -0.939  0.00  0.00     0.033 H 
ENDBRANCH   1  13
BRANCH   9  17
ATOM     17  N4  <0> d           0.534   4.431   0.020  0.00  0.00    -0.231 N 
ATOM     18  H7  <0> d           0.890   5.472   0.021  0.00  0.00     0.174 HD
ATOM     19  H8  <0> d          -0.545   4.219   0.029  0.00  0.00     0.174 HD
ENDBRANCH   9  17
TORSDOF 2
