REMARK  2 active torsions:
REMARK  status: ('A' for Active; 'I' for Inactive)
REMARK    1  A    between atoms: C1_1  and  C2_2 
REMARK    2  A    between atoms: C3_3  and  C4_7 
ROOT
ATOM      1  C2  <0> d          -0.718   1.572   1.248  0.00  0.00     0.098 A 
ATOM      2  C3  <0> d          -0.146   1.879   2.572  0.00  0.00     0.189 A 
ATOM      3  N1  <0> d          -1.203   2.255   3.261  0.00  0.00    -0.096 NA
ATOM      4  O1  <0> d          -2.180   2.198   2.551  0.00  0.00    -0.106 OA
ATOM      5  N2  <0> d          -1.988   1.831   1.416  0.00  0.00    -0.107 NA
ENDROOT
BRANCH   1   6
ATOM      6  C1  <0> d          -0.013   1.086   0.008  0.00  0.00    -0.031 C 
ATOM      7  H1  <0> d           0.002  -0.004   0.002  0.00  0.00     0.035 H 
ATOM      8  H2  <0> d           1.010   1.463   0.000  0.00  0.00     0.035 H 
ATOM      9  H3  <0> d          -0.540   1.447  -0.875  0.00  0.00     0.035 H 
ENDBRANCH   1   6
BRANCH   2  10
ATOM     10  C4  <0> d           1.265   1.788   3.017  0.00  0.00     0.233 C 
ATOM     11  O2  <0> d           2.122   1.417   2.241  0.00  0.00    -0.643 OA
ATOM     12  O3  <0> d           1.595   2.115   4.280  0.00  0.00    -0.643 OA
ENDBRANCH   2  10
TORSDOF 2
