REMARK  2 active torsions:
REMARK  status: ('A' for Active; 'I' for Inactive)
REMARK    1  A    between atoms: C1_1  and  C2_2 
REMARK    2  A    between atoms: C4_7  and  C6_12 
ROOT
ATOM      1  C2  <0> d           1.312   2.074   0.001  0.00  0.00     0.128 C 
ATOM      2  H1  <0> d           1.157   3.127   0.234  0.00  0.00     0.099 H 
ATOM      3  C3  <0> d          -0.016   1.347   0.009  0.00  0.00     0.289 C 
ATOM      4  O1  <0> d          -1.060   1.957   0.018  0.00  0.00    -0.262 OA
ATOM      5  O2  <0> d           0.002  -0.004   0.002  0.00  0.00    -0.304 OA
ATOM      6  C4  <0> d           0.857  -0.613   1.016  0.00  0.00     0.128 C 
ATOM      7  H2  <0> d           0.391  -0.517   1.996  0.00  0.00     0.099 H 
ATOM      8  C5  <0> d           2.185   0.113   1.007  0.00  0.00     0.289 C 
ATOM      9  O3  <0> d           3.229  -0.496   0.994  0.00  0.00    -0.262 OA
ATOM     10  O4  <0> d           2.167   1.465   1.014  0.00  0.00    -0.304 OA
ENDROOT
BRANCH   1  11
ATOM     11  C1  <0> d           1.966   1.939  -1.376  0.00  0.00    -0.043 C 
ATOM     12  H3  <0> d           1.312   2.373  -2.133  0.00  0.00     0.031 H 
ATOM     13  H4  <0> d           2.921   2.464  -1.377  0.00  0.00     0.031 H 
ATOM     14  H5  <0> d           2.130   0.885  -1.599  0.00  0.00     0.031 H 
ENDBRANCH   1  11
BRANCH   6  15
ATOM     15  C6  <0> d           1.074  -2.092   0.688  0.00  0.00    -0.043 C 
ATOM     16  H6  <0> d           1.552  -2.181  -0.288  0.00  0.00     0.031 H 
ATOM     17  H7  <0> d           1.713  -2.542   1.448  0.00  0.00     0.031 H 
ATOM     18  H8  <0> d           0.113  -2.605   0.671  0.00  0.00     0.031 H 
ENDBRANCH   6  15
TORSDOF 2
