REMARK  1 active torsions:
REMARK  status: ('A' for Active; 'I' for Inactive)
REMARK    1  A    between atoms: C2_2  and  N5_10 
ROOT
ATOM      1  C1  <0> d           3.447   0.680  -0.028  0.00  0.00    -0.008 A 
ATOM      2  C2  <0> d           4.039  -0.555  -0.041  0.00  0.00     0.049 A 
ATOM      3  C3  <0> d           3.244  -1.717  -0.039  0.00  0.00     0.047 A 
ATOM      4  N1  <0> d           1.941  -1.638  -0.026  0.00  0.00    -0.175 NA
ATOM      5  N2  <0> d           1.304  -0.396  -0.013  0.00  0.00    -0.206 N 
ATOM      6  C4  <0> d           2.045   0.761  -0.013  0.00  0.00     0.176 A 
ATOM      7  N3  <0> d           1.185   1.768   0.000  0.00  0.00    -0.129 NA
ATOM      8  N4  <0> d          -0.016   1.305   0.009  0.00  0.00    -0.141 NA
ATOM      9  C5  <0> d           0.002  -0.004   0.002  0.00  0.00     0.111 A 
ATOM     10  H1  <0> d           4.049   1.577  -0.029  0.00  0.00     0.093 H 
ATOM     11  H2  <0> d           3.719  -2.687  -0.049  0.00  0.00     0.120 H 
ATOM     12  H3  <0> d          -0.860  -0.654   0.007  0.00  0.00     0.149 H 
ENDROOT
BRANCH   2  13
ATOM     13  N5  <0> d           5.428  -0.661  -0.056  0.00  0.00    -0.398 N 
ATOM     14  H4  <0> d           5.847  -1.535  -0.065  0.00  0.00     0.156 HD
ATOM     15  H5  <0> d           5.975   0.140  -0.057  0.00  0.00     0.156 HD
ENDBRANCH   2  13
TORSDOF 1
