REMARK  7 active torsions:
REMARK  status: ('A' for Active; 'I' for Inactive)
REMARK    1  A    between atoms: C1_1  and  C2_2 
REMARK    2  A    between atoms: C2_2  and  C3_3 
REMARK    3  A    between atoms: C3_3  and  C4_4 
REMARK    4  A    between atoms: C4_4  and  C5_5 
REMARK    5  A    between atoms: C5_5  and  C6_6 
REMARK    6  A    between atoms: C6_6  and  C7_8 
REMARK    7  A    between atoms: C6_6  and  C8_9 
ROOT
ATOM      1  C4  <0> d          -3.810   1.672   0.155  0.00  0.00    -0.064 C 
ATOM      2  H9  <0> d          -3.819   2.233   1.089  0.00  0.00     0.033 H 
ATOM      3  H10 <0> d          -3.930   2.359  -0.683  0.00  0.00     0.033 H 
ENDROOT
BRANCH   1   4
ATOM      4  C3  <0> d          -4.959   0.662   0.155  0.00  0.00    -0.065 C 
ATOM      5  H7  <0> d          -4.950   0.101  -0.780  0.00  0.00     0.033 H 
ATOM      6  H8  <0> d          -4.839  -0.025   0.992  0.00  0.00     0.033 H 
BRANCH   4   7
ATOM      7  C2  <0> d          -6.290   1.404   0.291  0.00  0.00    -0.069 C 
ATOM      8  H5  <0> d          -6.300   1.965   1.226  0.00  0.00     0.032 H 
ATOM      9  H6  <0> d          -6.410   2.091  -0.547  0.00  0.00     0.032 H 
BRANCH   7  10
ATOM     10  C1  <0> d          -7.439   0.394   0.291  0.00  0.00    -0.077 C 
ATOM     11  H2  <0> d          -7.430  -0.167  -0.644  0.00  0.00     0.027 H 
ATOM     12  H3  <0> d          -7.319  -0.293   1.129  0.00  0.00     0.027 H 
ATOM     13  H4  <0> d          -8.388   0.923   0.388  0.00  0.00     0.027 H 
ENDBRANCH   7  10
ENDBRANCH   4   7
ENDBRANCH   1   4
BRANCH   1  14
ATOM     14  C5  <0> d          -2.479   0.930   0.019  0.00  0.00    -0.053 C 
ATOM     15  H11 <0> d          -2.470   0.369  -0.916  0.00  0.00     0.034 H 
ATOM     16  H12 <0> d          -2.359   0.243   0.856  0.00  0.00     0.034 H 
BRANCH  14  17
ATOM     17  C6  <0> d          -1.329   1.940   0.019  0.00  0.00     0.027 C 
ATOM     18  H1  <0> d          -1.391   2.561   0.913  0.00  0.00     0.056 H 
BRANCH  17  19
ATOM     19  C7  <0> d          -1.428   2.825  -1.225  0.00  0.00    -0.064 C 
ATOM     20  H13 <0> d          -0.610   3.545  -1.225  0.00  0.00     0.028 H 
ATOM     21  H14 <0> d          -1.366   2.204  -2.119  0.00  0.00     0.028 H 
ATOM     22  H15 <0> d          -2.380   3.357  -1.218  0.00  0.00     0.028 H 
ENDBRANCH  17  19
BRANCH  17  23
ATOM     23  C8  <0> d          -0.014   1.204   0.009  0.00  0.00     0.176 C 
ATOM     24  O1  <0> d           0.002  -0.004   0.002  0.00  0.00    -0.648 OA
ATOM     25  O2  <0> d           1.139   1.891   0.001  0.00  0.00    -0.648 OA
ENDBRANCH  17  23
ENDBRANCH  14  17
ENDBRANCH   1  14
TORSDOF 7
