REMARK  3 active torsions:
REMARK  status: ('A' for Active; 'I' for Inactive)
REMARK    1  A    between atoms: C1_1  and  C2_2 
REMARK    2  A    between atoms: C6_6  and  O1_8 
REMARK    3  A    between atoms: O1_8  and  C8_9 
ROOT
ATOM      1  C8  <0> d          -2.299  -0.366   0.011  0.00  0.00     0.104 C 
ATOM      2  C9  <0> d          -3.653  -0.945   0.014  0.00  0.00     0.085 C 
ATOM      3  N1  <0> d          -4.697  -1.392   0.017  0.00  0.00    -0.195 NA
ATOM      4  H8  <0> d          -1.767  -0.691  -0.883  0.00  0.00     0.097 H 
ATOM      5  H9  <0> d          -1.759  -0.701   0.897  0.00  0.00     0.097 H 
ENDROOT
BRANCH   1   6
ATOM      6  O1  <0> d          -2.391   1.060   0.019  0.00  0.00    -0.338 OA
BRANCH   6   7
ATOM      7  C6  <0> d          -1.223   1.754   0.017  0.00  0.00     0.070 A 
ATOM      8  C5  <0> d          -0.013   1.076   0.008  0.00  0.00    -0.051 A 
ATOM      9  C4  <0> d           1.174   1.783   0.000  0.00  0.00    -0.080 A 
ATOM     10  H6  <0> d           0.002  -0.004   0.002  0.00  0.00     0.087 H 
ATOM     11  C3  <0> d           1.156   3.166   0.007  0.00  0.00    -0.077 A 
ATOM     12  H5  <0> d           2.117   1.256  -0.011  0.00  0.00     0.083 H 
ATOM     13  C2  <0> d          -0.049   3.844   0.022  0.00  0.00    -0.059 A 
ATOM     14  H4  <0> d           2.085   3.717   0.001  0.00  0.00     0.084 H 
ATOM     15  C7  <0> d          -1.238   3.141   0.029  0.00  0.00    -0.045 A 
ATOM     16  H7  <0> d          -2.179   3.671   0.040  0.00  0.00     0.088 H 
BRANCH  13  17
ATOM     17  C1  <0> d          -0.065   5.351   0.029  0.00  0.00    -0.051 C 
ATOM     18  H1  <0> d          -0.079   5.719  -0.997  0.00  0.00     0.033 H 
ATOM     19  H2  <0> d          -0.954   5.702   0.553  0.00  0.00     0.033 H 
ATOM     20  H3  <0> d           0.826   5.721   0.536  0.00  0.00     0.033 H 
ENDBRANCH  13  17
ENDBRANCH   6   7
ENDBRANCH   1   6
TORSDOF 3
