REMARK  3 active torsions:
REMARK  status: ('A' for Active; 'I' for Inactive)
REMARK    1  A    between atoms: C4_4  and  N1_9 
REMARK    2  A    between atoms: C6_6  and  C7_7 
REMARK    3  A    between atoms: C7_7  and  O1_8 
ROOT
ATOM      1  C1  <0> d          -0.017   1.378   0.010  0.00  0.00    -0.073 A 
ATOM      2  C2  <0> d           1.170   2.089   0.002  0.00  0.00    -0.059 A 
ATOM      3  C3  <0> d           2.378   1.419  -0.013  0.00  0.00     0.060 A 
ATOM      4  C4  <0> d           2.400   0.029  -0.021  0.00  0.00     0.048 A 
ATOM      5  C5  <0> d           1.207  -0.680  -0.013  0.00  0.00    -0.048 A 
ATOM      6  C6  <0> d           0.002  -0.004   0.002  0.00  0.00    -0.033 A 
ATOM      7 Cl1  <0> d           3.867   2.312  -0.023  0.00  0.00    -0.082 Cl
ATOM      8  H1  <0> d          -0.960   1.904   0.026  0.00  0.00     0.084 H 
ATOM      9  H2  <0> d           1.151   3.169   0.008  0.00  0.00     0.086 H 
ATOM     10  H3  <0> d           1.220  -1.760  -0.019  0.00  0.00     0.087 H 
ENDROOT
BRANCH   6  11
ATOM     11  C7  <0> d          -1.293  -0.774   0.011  0.00  0.00     0.041 C 
ATOM     12  H4  <0> d          -1.146  -1.728   0.518  0.00  0.00     0.081 H 
ATOM     13  H5  <0> d          -2.055  -0.198   0.535  0.00  0.00     0.081 H 
BRANCH  11  14
ATOM     14  O1  <0> d          -1.716  -1.010  -1.334  0.00  0.00    -0.396 OA
ATOM     15  H6  <0> d          -2.545  -1.503  -1.405  0.00  0.00     0.209 HD
ENDBRANCH  11  14
ENDBRANCH   6  11
BRANCH   4  16
ATOM     16  N1  <0> d           3.620  -0.652  -0.036  0.00  0.00    -0.398 N 
ATOM     17  H7  <0> d           4.453  -0.155  -0.042  0.00  0.00     0.156 HD
ATOM     18  H8  <0> d           3.634  -1.622  -0.042  0.00  0.00     0.156 HD
ENDBRANCH   4  16
TORSDOF 3
