REMARK  2 active torsions:
REMARK  status: ('A' for Active; 'I' for Inactive)
REMARK    1  A    between atoms: C3_4  and  C5_7 
REMARK    2  A    between atoms: C4_5  and  O1_6 
REMARK       I    between atoms: C5_7  and  N1_9 
ROOT
ATOM      1  C1  <0> d          -0.016   1.350   0.009  0.00  0.00    -0.043 A 
ATOM      2  C2  <0> d           0.002  -0.004   0.002  0.00  0.00    -0.041 A 
ATOM      3  S1  <0> d           1.635  -0.399  -0.016  0.00  0.00    -0.094 SA
ATOM      4  C3  <0> d           2.326   1.245  -0.013  0.00  0.00     0.105 A 
ATOM      5  C4  <0> d           1.180   2.037   0.002  0.00  0.00     0.088 A 
ATOM      6  H1  <0> d          -0.955   1.885   0.017  0.00  0.00     0.088 H 
ATOM      7  H2  <0> d          -0.842  -0.678   0.007  0.00  0.00     0.095 H 
ENDROOT
BRANCH   4   8
ATOM      8  C5  <0> d           3.686   1.641  -0.024  0.00  0.00     0.259 C 
ATOM      9  O2  <0> d           3.975   2.824  -0.020  0.00  0.00    -0.267 OA
ATOM     10  N1  <0> d           4.660   0.710  -0.038  0.00  0.00    -0.365 N 
ATOM     11  H3  <0> d           4.430  -0.233  -0.041  0.00  0.00     0.159 HD
ATOM     12  H4  <0> d           5.591   0.981  -0.045  0.00  0.00     0.159 HD
ENDBRANCH   4   8
BRANCH   5  13
ATOM     13  O1  <0> d           1.237   3.393   0.008  0.00  0.00    -0.359 OA
ATOM     14  H5  <0> d           1.262   3.782   0.893  0.00  0.00     0.217 HD
ENDBRANCH   5  13
TORSDOF 2
