REMARK  0 active torsions:
REMARK  status: ('A' for Active; 'I' for Inactive)
ROOT
ATOM      1  C1  <0> d          -0.017   1.374   0.010  0.00  0.00    -0.081 A 
ATOM      2  C2  <0> d           1.173   2.085   0.002  0.00  0.00    -0.075 A 
ATOM      3  C3  <0> d           2.382   1.423  -0.014  0.00  0.00    -0.034 A 
ATOM      4  C4  <0> d           2.428   0.034  -0.027  0.00  0.00     0.035 A 
ATOM      5  C5  <0> d           1.219  -0.687  -0.016  0.00  0.00     0.066 A 
ATOM      6  C6  <0> d           0.002  -0.004   0.002  0.00  0.00    -0.061 A 
ATOM      7  C7  <0> d           1.238  -2.119  -0.023  0.00  0.00     0.101 C 
ATOM      8  N1  <0> d           1.253  -3.255  -0.029  0.00  0.00    -0.191 NA
ATOM      9  N2  <0> d           3.744  -0.424  -0.057  0.00  0.00    -0.291 NA
ATOM     10  C8  <0> d           4.623   0.683   0.379  0.00  0.00    -0.015 C 
ATOM     11  C9  <0> d           3.809   1.936  -0.018  0.00  0.00    -0.028 C 
ATOM     12  H1  <0> d          -0.960   1.900   0.017  0.00  0.00     0.083 H 
ATOM     13  H2  <0> d           1.153   3.165   0.009  0.00  0.00     0.084 H 
ATOM     14  H3  <0> d          -0.926  -0.556   0.010  0.00  0.00     0.085 H 
ATOM     15  H4  <0> d           3.994  -0.742  -0.981  0.00  0.00     0.127 HD
ATOM     16  H5  <0> d           4.780   0.650   1.457  0.00  0.00     0.056 H 
ATOM     17  H6  <0> d           5.573   0.654  -0.153  0.00  0.00     0.056 H 
ATOM     18  H7  <0> d           3.936   2.729   0.719  0.00  0.00     0.042 H 
ATOM     19  H8  <0> d           4.092   2.282  -1.012  0.00  0.00     0.042 H 
ENDROOT
TORSDOF 0
