REMARK  1 active torsions:
REMARK  status: ('A' for Active; 'I' for Inactive)
REMARK    1  A    between atoms: C4_5  and  N3_7 
ROOT
ATOM      1  C1  <0> d           0.002  -0.004   0.002  0.00  0.00     0.021 A 
ATOM      2  C2  <0> d          -0.017   1.377   0.010  0.00  0.00     0.021 A 
ATOM      3  N1  <0> d           1.117   2.058   0.002  0.00  0.00    -0.244 NA
ATOM      4  C3  <0> d           2.273   1.419  -0.012  0.00  0.00     0.171 A 
ATOM      5  C4  <0> d           2.295   0.025  -0.020  0.00  0.00     0.162 A 
ATOM      6  N2  <0> d           1.155  -0.652  -0.013  0.00  0.00    -0.239 NA
ATOM      7 Cl1  <0> d           3.761   2.313  -0.021  0.00  0.00    -0.058 Cl
ATOM      8  H1  <0> d          -0.926  -0.556   0.008  0.00  0.00     0.117 H 
ATOM      9  H2  <0> d          -0.960   1.903   0.017  0.00  0.00     0.117 H 
ENDROOT
BRANCH   5  10
ATOM     10  N3  <0> d           3.509  -0.653  -0.035  0.00  0.00    -0.381 N 
ATOM     11  H3  <0> d           3.523  -1.623  -0.041  0.00  0.00     0.157 HD
ATOM     12  H4  <0> d           4.342  -0.156  -0.041  0.00  0.00     0.157 HD
ENDBRANCH   5  10
TORSDOF 1
