REMARK  2 active torsions:
REMARK  status: ('A' for Active; 'I' for Inactive)
REMARK    1  A    between atoms: C3_3  and  N2_8 
REMARK    2  A    between atoms: C6_6  and  N1_7 
REMARK       I    between atoms: N2_8  and  C7_9 
REMARK       I    between atoms: C7_9  and  N3_11 
ROOT
ATOM      1  C1  <0> d          -3.608   1.709   0.216  0.00  0.00    -0.056 A 
ATOM      2  C2  <0> d          -2.421   1.005   0.174  0.00  0.00    -0.055 A 
ATOM      3  C3  <0> d          -1.216   1.682   0.050  0.00  0.00     0.036 A 
ATOM      4  C4  <0> d          -1.202   3.068  -0.027  0.00  0.00    -0.055 A 
ATOM      5  C5  <0> d          -2.389   3.773   0.010  0.00  0.00    -0.056 A 
ATOM      6  C6  <0> d          -3.595   3.096   0.134  0.00  0.00     0.025 A 
ATOM      7  H1  <0> d          -4.546   1.183   0.313  0.00  0.00     0.087 H 
ATOM      8  H2  <0> d          -2.431  -0.073   0.237  0.00  0.00     0.087 H 
ATOM      9  H3  <0> d          -0.264   3.595  -0.119  0.00  0.00     0.087 H 
ATOM     10  H4  <0> d          -2.379   4.851  -0.054  0.00  0.00     0.087 H 
ENDROOT
BRANCH   3  11
ATOM     11  N2  <0> d          -0.011   0.966   0.007  0.00  0.00    -0.309 N 
ATOM     12  C7  <0> d           0.037  -0.237  -0.599  0.00  0.00     0.318 C 
ATOM     13  O1  <0> d          -0.980  -0.737  -1.040  0.00  0.00    -0.247 OA
ATOM     14  N3  <0> d           1.213  -0.885  -0.717  0.00  0.00    -0.352 N 
ATOM     15  H8  <0> d           2.024  -0.487  -0.365  0.00  0.00     0.160 HD
ATOM     16  H9  <0> d           1.248  -1.751  -1.153  0.00  0.00     0.160 HD
ATOM     17  H7  <0> d           0.787   1.334   0.418  0.00  0.00     0.170 HD
ENDBRANCH   3  11
BRANCH   6  18
ATOM     18  N1  <0> d          -4.798   3.810   0.176  0.00  0.00    -0.399 N 
ATOM     19  H5  <0> d          -5.640   3.337   0.262  0.00  0.00     0.156 HD
ATOM     20  H6  <0> d          -4.789   4.778   0.119  0.00  0.00     0.156 HD
ENDBRANCH   6  18
TORSDOF 2
