REMARK  2 active torsions:
REMARK  status: ('A' for Active; 'I' for Inactive)
REMARK    1  A    between atoms: C1_1  and  C2_2 
REMARK    2  A    between atoms: C2_2  and  C3_3 
ROOT
ATOM      1  C3  <0> d          -2.469   3.855   0.045  0.00  0.00     0.045 A 
ATOM      2  C4  <0> d          -1.235   3.185   0.030  0.00  0.00    -0.001 A 
ATOM      3  C5  <0> d          -0.012   3.875   0.021  0.00  0.00    -0.070 A 
ATOM      4  C6  <0> d           1.154   3.172   0.007  0.00  0.00    -0.082 A 
ATOM      5  C7  <0> d           1.155   1.778   0.001  0.00  0.00    -0.082 A 
ATOM      6  C8  <0> d          -0.013   1.076   0.008  0.00  0.00    -0.072 A 
ATOM      7  C9  <0> d          -1.233   1.766   0.017  0.00  0.00    -0.023 A 
ATOM      8  C10 <0> d          -2.472   1.099   0.032  0.00  0.00    -0.055 A 
ATOM      9  C11 <0> d          -3.614   1.841   0.047  0.00  0.00     0.003 A 
ATOM     10  N1  <0> d          -3.587   3.167   0.052  0.00  0.00    -0.265 NA
ATOM     11  H6  <0> d           0.003   4.954   0.026  0.00  0.00     0.084 H 
ATOM     12  H7  <0> d           2.094   3.703   0.001  0.00  0.00     0.083 H 
ATOM     13  H8  <0> d           2.095   1.247  -0.011  0.00  0.00     0.083 H 
ATOM     14  H9  <0> d           0.002  -0.004   0.002  0.00  0.00     0.084 H 
ATOM     15  H10 <0> d          -2.517   0.020   0.028  0.00  0.00     0.087 H 
ATOM     16  H11 <0> d          -4.568   1.336   0.054  0.00  0.00     0.114 H 
ENDROOT
BRANCH   1  17
ATOM     17  C2  <0> d          -2.510   5.362   0.052  0.00  0.00    -0.027 C 
ATOM     18  H4  <0> d          -1.617   5.750   0.564  0.00  0.00     0.041 H 
ATOM     19  H5  <0> d          -3.412   5.701   0.581  0.00  0.00     0.041 H 
BRANCH  17  20
ATOM     20  C1  <0> d          -2.537   5.878  -1.388  0.00  0.00    -0.071 C 
ATOM     21  H1  <0> d          -2.567   6.978  -1.382  0.00  0.00     0.028 H 
ATOM     22  H2  <0> d          -3.430   5.490  -1.899  0.00  0.00     0.028 H 
ATOM     23  H3  <0> d          -1.634   5.539  -1.916  0.00  0.00     0.028 H 
ENDBRANCH  17  20
ENDBRANCH   1  17
TORSDOF 2
