REMARK  2 active torsions:
REMARK  status: ('A' for Active; 'I' for Inactive)
REMARK    1  A    between atoms: C1_1  and  C2_2 
REMARK    2  A    between atoms: C2_2  and  O1_7 
ROOT
ATOM      1  C2  <0> d          -0.019   1.526   0.010  0.00  0.00     0.054 C 
ATOM      2  C3  <0> d          -0.769   2.037   1.258  0.00  0.00    -0.037 C 
ATOM      3  C4  <0> d          -1.537   3.285   0.753  0.00  0.00    -0.062 C 
ATOM      4  C5  <0> d          -1.984   2.860  -0.668  0.00  0.00    -0.062 C 
ATOM      5  C6  <0> d          -0.790   2.049  -1.214  0.00  0.00    -0.037 C 
ATOM      6  H4  <0> d          -1.466   1.282   1.620  0.00  0.00     0.037 H 
ATOM      7  H5  <0> d          -0.063   2.314   2.041  0.00  0.00     0.037 H 
ATOM      8  H6  <0> d          -0.877   4.152   0.708  0.00  0.00     0.033 H 
ATOM      9  H7  <0> d          -2.401   3.492   1.384  0.00  0.00     0.033 H 
ATOM     10  H8  <0> d          -2.164   3.738  -1.289  0.00  0.00     0.033 H 
ATOM     11  H9  <0> d          -2.877   2.238  -0.617  0.00  0.00     0.033 H 
ATOM     12  H10 <0> d          -0.146   2.691  -1.815  0.00  0.00     0.037 H 
ATOM     13  H11 <0> d          -1.150   1.213  -1.813  0.00  0.00     0.037 H 
ENDROOT
BRANCH   1  14
ATOM     14  C1  <0> d           0.002  -0.004   0.002  0.00  0.00    -0.048 C 
ATOM     15  H1  <0> d           0.540  -0.365   0.879  0.00  0.00     0.031 H 
ATOM     16  H2  <0> d          -1.020  -0.381   0.022  0.00  0.00     0.031 H 
ATOM     17  H3  <0> d           0.501  -0.356  -0.901  0.00  0.00     0.031 H 
ENDBRANCH   1  14
BRANCH   1  18
ATOM     18  O1  <0> d           1.317   2.033   0.000  0.00  0.00    -0.390 OA
ATOM     19  H12 <0> d           1.852   1.747   0.753  0.00  0.00     0.210 HD
ENDBRANCH   1  18
TORSDOF 2
