REMARK  1 active torsions:
REMARK  status: ('A' for Active; 'I' for Inactive)
REMARK    1  A    between atoms: C1_1  and  C2_2 
ROOT
ATOM      1  C2  <0> d           1.305  -0.392  -0.013  0.00  0.00     0.104 A 
ATOM      2  N1  <0> d           0.002  -0.004   0.002  0.00  0.00    -0.326 N 
ATOM      3  H1  <0> d          -0.795  -0.607   0.006  0.00  0.00     0.169 HD
ATOM      4  C3  <0> d          -0.017   1.374   0.010  0.00  0.00     0.177 A 
ATOM      5  C4  <0> d           1.333   1.780  -0.001  0.00  0.00     0.197 A 
ATOM      6  N2  <0> d           2.084   0.651  -0.014  0.00  0.00    -0.213 NA
ATOM      7  N3  <0> d           1.627   3.077   0.003  0.00  0.00    -0.237 NA
ATOM      8  C5  <0> d           0.655   3.969   0.016  0.00  0.00     0.021 A 
ATOM      9  C6  <0> d          -0.671   3.565   0.026  0.00  0.00     0.021 A 
ATOM     10  N4  <0> d          -0.979   2.281   0.028  0.00  0.00    -0.238 NA
ATOM     11  H5  <0> d           0.895   5.022   0.019  0.00  0.00     0.117 H 
ATOM     12  H6  <0> d          -1.457   4.306   0.037  0.00  0.00     0.117 H 
ENDROOT
BRANCH   1  13
ATOM     13  C1  <0> d           1.779  -1.823  -0.025  0.00  0.00    -0.021 C 
ATOM     14  H2  <0> d           1.884  -2.162  -1.055  0.00  0.00     0.037 H 
ATOM     15  H3  <0> d           2.743  -1.891   0.480  0.00  0.00     0.037 H 
ATOM     16  H4  <0> d           1.054  -2.450   0.493  0.00  0.00     0.037 H 
ENDBRANCH   1  13
TORSDOF 1
