REMARK  0 active torsions:
REMARK  status: ('A' for Active; 'I' for Inactive)
ROOT
ATOM      1  C1  <0> d           2.381   1.408  -0.014  0.00  0.00    -0.054 A 
ATOM      2  C2  <0> d           2.398   0.029  -0.021  0.00  0.00    -0.040 A 
ATOM      3  C3  <0> d           1.211  -0.683  -0.013  0.00  0.00     0.155 A 
ATOM      4  C4  <0> d           0.002  -0.004   0.002  0.00  0.00     0.163 A 
ATOM      5  C5  <0> d          -0.017   1.379   0.010  0.00  0.00     0.011 A 
ATOM      6  C6  <0> d           1.168   2.098   0.002  0.00  0.00     0.037 A 
ATOM      7  N1  <0> d           0.934   3.476   0.011  0.00  0.00    -0.389 N 
ATOM      8  C7  <0> d          -0.507   3.741   0.026  0.00  0.00    -0.004 A 
ATOM      9  C8  <0> d          -1.172   2.355   0.020  0.00  0.00    -0.021 A 
ATOM     10  F1  <0> d          -1.159  -0.695   0.009  0.00  0.00    -0.202 F 
ATOM     11  F2  <0> d           1.230  -2.034  -0.021  0.00  0.00    -0.203 F 
ATOM     12  H1  <0> d           3.311   1.956  -0.020  0.00  0.00     0.087 H 
ATOM     13  H2  <0> d           3.341  -0.498  -0.033  0.00  0.00     0.088 H 
ATOM     14  H3  <0> d           1.625   4.157   0.008  0.00  0.00     0.159 HD
ATOM     15  H4  <0> d          -0.781   4.291   0.926  0.00  0.00     0.064 H 
ATOM     16  H5  <0> d          -0.798   4.300  -0.863  0.00  0.00     0.064 H 
ATOM     17  H6  <0> d          -1.784   2.229  -0.874  0.00  0.00     0.042 H 
ATOM     18  H7  <0> d          -1.776   2.220   0.917  0.00  0.00     0.042 H 
ENDROOT
TORSDOF 0
