REMARK  1 active torsions:
REMARK  status: ('A' for Active; 'I' for Inactive)
REMARK    1  A    between atoms: C10_12  and  O1_14 
ROOT
ATOM      1  C1  <0> d          -0.013   1.076   0.008  0.00  0.00    -0.082 A 
ATOM      2  C2  <0> d           1.175   1.784   0.000  0.00  0.00    -0.082 A 
ATOM      3  C3  <0> d           1.151   3.164   0.008  0.00  0.00    -0.074 A 
ATOM      4  C4  <0> d          -0.058   3.845   0.023  0.00  0.00    -0.023 A 
ATOM      5  C5  <0> d          -1.242   3.138   0.030  0.00  0.00    -0.045 A 
ATOM      6  C6  <0> d          -1.216   1.751   0.017  0.00  0.00    -0.076 A 
ATOM      7  C7  <0> d          -2.420   4.082   0.045  0.00  0.00    -0.021 A 
ATOM      8  H1  <0> d          -3.276   3.826  -0.579  0.00  0.00     0.048 H 
ATOM      9  C8  <0> d          -2.634   4.981   1.264  0.00  0.00    -0.051 A 
ATOM     10  C9  <0> d          -1.854   5.508   0.057  0.00  0.00    -0.017 A 
ATOM     11  H2  <0> d          -2.278   6.296  -0.564  0.00  0.00     0.045 H 
ATOM     12  C10 <0> d          -0.330   5.330   0.033  0.00  0.00     0.065 A 
ATOM     13  H3  <0> d           0.114   5.782   0.920  0.00  0.00     0.091 H 
ATOM     14  H4  <0> d           0.002  -0.004   0.002  0.00  0.00     0.083 H 
ATOM     15  H5  <0> d           2.118   1.259  -0.011  0.00  0.00     0.083 H 
ATOM     16  H6  <0> d           2.079   3.717   0.002  0.00  0.00     0.084 H 
ATOM     17  H7  <0> d          -2.143   1.196   0.018  0.00  0.00     0.084 H 
ATOM     18  H8  <0> d          -2.068   4.749   2.166  0.00  0.00     0.034 H 
ATOM     19  H9  <0> d          -3.636   5.377   1.427  0.00  0.00     0.034 H 
ENDROOT
BRANCH  12  20
ATOM     20  O1  <0> d           0.213   5.932  -1.143  0.00  0.00    -0.390 OA
ATOM     21  H10 <0> d           1.172   5.841  -1.226  0.00  0.00     0.210 HD
ENDBRANCH  12  20
TORSDOF 1
