REMARK  4 active torsions:
REMARK  status: ('A' for Active; 'I' for Inactive)
REMARK    1  A    between atoms: C1_1  and  C2_2 
REMARK    2  A    between atoms: C2_2  and  C3_3 
REMARK    3  A    between atoms: C2_2  and  C5_5 
REMARK    4  A    between atoms: C2_2  and  O1_11 
ROOT
ATOM      1  C3  <0> d          -2.942   0.736  -1.368  0.00  0.00    -0.074 C 
ATOM      2  C4  <0> d          -3.283   0.542  -2.474  0.00  0.00    -0.151 C 
ATOM      3  H4  <0> d          -3.589   0.368  -3.464  0.00  0.00     0.166 H 
ENDROOT
BRANCH   1   4
ATOM      4  C2  <0> d          -2.514   0.980   0.019  0.00  0.00     0.144 C 
BRANCH   4   5
ATOM      5  C1  <0> d          -3.588   1.788   0.750  0.00  0.00    -0.033 C 
ATOM      6  H1  <0> d          -3.733   2.741   0.242  0.00  0.00     0.033 H 
ATOM      7  H2  <0> d          -4.524   1.230   0.751  0.00  0.00     0.033 H 
ATOM      8  H3  <0> d          -3.271   1.968   1.777  0.00  0.00     0.033 H 
ENDBRANCH   4   5
BRANCH   4   9
ATOM      9  C5  <0> d          -1.219   1.751   0.017  0.00  0.00    -0.012 A 
ATOM     10  C10 <0> d          -1.238   3.133   0.030  0.00  0.00    -0.073 A 
ATOM     11  C9  <0> d          -0.050   3.840   0.022  0.00  0.00    -0.082 A 
ATOM     12  H9  <0> d          -2.180   3.660   0.041  0.00  0.00     0.084 H 
ATOM     13  C8  <0> d           1.156   3.165   0.008  0.00  0.00    -0.083 A 
ATOM     14  H8  <0> d          -0.065   4.920   0.028  0.00  0.00     0.083 H 
ATOM     15  C7  <0> d           1.175   1.783   0.000  0.00  0.00    -0.082 A 
ATOM     16  H7  <0> d           2.084   3.718   0.001  0.00  0.00     0.083 H 
ATOM     17  C6  <0> d          -0.013   1.076   0.008  0.00  0.00    -0.073 A 
ATOM     18  H6  <0> d           2.118   1.256  -0.011  0.00  0.00     0.083 H 
ATOM     19  H5  <0> d           0.002  -0.004   0.002  0.00  0.00     0.084 H 
ENDBRANCH   4   9
BRANCH   4  20
ATOM     20  O1  <0> d          -2.323  -0.270   0.685  0.00  0.00    -0.373 OA
ATOM     21  H10 <0> d          -1.654  -0.836   0.276  0.00  0.00     0.212 HD
ENDBRANCH   4  20
ENDBRANCH   1   4
TORSDOF 4
