REMARK  1 active torsions:
REMARK  status: ('A' for Active; 'I' for Inactive)
REMARK    1  A    between atoms: C4_9  and  N5_13 
ROOT
ATOM      1  C1  <0> d          -0.017   1.389   0.010  0.00  0.00     0.057 C 
ATOM      2  N1  <0> d           1.190   1.904   0.001  0.00  0.00    -0.266 NA
ATOM      3  C2  <0> d           2.119   0.800  -0.047  0.00  0.00     0.149 C 
ATOM      4  H1  <0> d           2.280   0.515  -1.087  0.00  0.00     0.097 H 
ATOM      5  C3  <0> d           1.270  -0.313   0.655  0.00  0.00     0.122 C 
ATOM      6  H2  <0> d           1.207  -0.147   1.730  0.00  0.00     0.111 H 
ATOM      7  N2  <0> d           0.002  -0.004   0.002  0.00  0.00    -0.361 N 
ATOM      8  N3  <0> d           1.990  -1.539   0.359  0.00  0.00    -0.199 N 
ATOM      9  C4  <0> d           3.308  -1.514   0.782  0.00  0.00     0.720 C 
ATOM     10  N4  <0> d           3.948  -0.370   0.979  0.00  0.00    -0.024 NA
ATOM     11  C5  <0> d           3.423   0.807   0.658  0.00  0.00     0.288 C 
ATOM     12  O1  <0> d           3.996   1.841   0.940  0.00  0.00    -0.268 OA
ATOM     13  H3  <0> d          -0.922   1.978   0.026  0.00  0.00     0.142 H 
ATOM     14  H4  <0> d          -0.663  -0.617  -0.350  0.00  0.00     0.162 HD
ATOM     15  H6  <0> d           1.588  -2.299  -0.090  0.00  0.00     0.180 HD
ENDROOT
BRANCH   9  16
ATOM     16  N5  <0> d           3.960  -2.690   1.001  0.00  0.00    -0.116 NA
ATOM     17  H5  <0> d           4.884  -2.684   1.298  0.00  0.00     0.206 HD
ENDBRANCH   9  16
TORSDOF 1
