REMARK  2 active torsions:
REMARK  status: ('A' for Active; 'I' for Inactive)
REMARK    1  A    between atoms: C4_4  and  C7_7 
REMARK    2  A    between atoms: C7_7  and  N1_8 
ROOT
ATOM      1  C7  <0> d          -2.514   0.980   0.019  0.00  0.00     0.022 C 
ATOM      2  H6  <0> d          -3.284   1.561  -0.488  0.00  0.00     0.072 H 
ATOM      3  H7  <0> d          -2.373   0.032  -0.500  0.00  0.00     0.072 H 
ENDROOT
BRANCH   1   4
ATOM      4  C4  <0> d          -1.219   1.751   0.017  0.00  0.00    -0.040 A 
ATOM      5  C3  <0> d          -0.013   1.076   0.008  0.00  0.00    -0.075 A 
ATOM      6  C2  <0> d           1.175   1.783   0.000  0.00  0.00    -0.082 A 
ATOM      7  H3  <0> d           0.002  -0.004   0.002  0.00  0.00     0.084 H 
ATOM      8  C1  <0> d           1.156   3.165   0.008  0.00  0.00    -0.083 A 
ATOM      9  H2  <0> d           2.118   1.256  -0.011  0.00  0.00     0.083 H 
ATOM     10  C6  <0> d          -0.050   3.840   0.022  0.00  0.00    -0.082 A 
ATOM     11  H1  <0> d           2.084   3.718   0.001  0.00  0.00     0.083 H 
ATOM     12  C5  <0> d          -1.238   3.133   0.030  0.00  0.00    -0.075 A 
ATOM     13  H5  <0> d          -0.065   4.920   0.028  0.00  0.00     0.083 H 
ATOM     14  H4  <0> d          -2.180   3.660   0.041  0.00  0.00     0.084 H 
ENDBRANCH   1   4
BRANCH   1  15
ATOM     15  N1  <0> d          -2.927   0.722   1.401  0.00  0.00    -0.362 N 
ATOM     16  C11 <0> d          -3.718   1.535   2.158  0.00  0.00    -0.021 A 
ATOM     17  C10 <0> d          -3.874   0.962   3.369  0.00  0.00    -0.067 A 
ATOM     18  H11 <0> d          -4.145   2.475   1.843  0.00  0.00     0.111 H 
ATOM     19  C9  <0> d          -3.153  -0.249   3.359  0.00  0.00    -0.067 A 
ATOM     20  H10 <0> d          -4.446   1.358   4.195  0.00  0.00     0.085 H 
ATOM     21  C8  <0> d          -2.588  -0.372   2.141  0.00  0.00    -0.021 A 
ATOM     22  H9  <0> d          -3.071  -0.951   4.176  0.00  0.00     0.085 H 
ATOM     23  H8  <0> d          -1.973  -1.195   1.808  0.00  0.00     0.111 H 
ENDBRANCH   1  15
TORSDOF 2
