REMARK  3 active torsions:
REMARK  status: ('A' for Active; 'I' for Inactive)
REMARK    1  A    between atoms: N1_4  and  C6_8 
REMARK    2  A    between atoms: C6_8  and  C7_9 
REMARK    3  A    between atoms: C7_9  and  O2_10 
ROOT
ATOM      1  C1  <0> d          -0.019   1.526   0.010  0.00  0.00    -0.056 C 
ATOM      2  C2  <0> d           1.429   2.031  -0.001  0.00  0.00    -0.050 C 
ATOM      3  C3  <0> d           2.087   1.662   1.330  0.00  0.00    -0.002 C 
ATOM      4  N1  <0> d           1.888   0.248   1.622  0.00  0.00    -0.350 N 
ATOM      5  C4  <0> d           0.947  -0.508   1.054  0.00  0.00     0.219 C 
ATOM      6  O1  <0> d           0.850  -1.664   1.407  0.00  0.00    -0.273 OA
ATOM      7  C5  <0> d           0.002  -0.004   0.002  0.00  0.00     0.009 C 
ATOM      8  H1  <0> d          -0.524   1.882   0.908  0.00  0.00     0.033 H 
ATOM      9  H2  <0> d          -0.541   1.891  -0.874  0.00  0.00     0.033 H 
ATOM     10  H3  <0> d           1.974   1.562  -0.820  0.00  0.00     0.035 H 
ATOM     11  H4  <0> d           1.438   3.114  -0.125  0.00  0.00     0.035 H 
ATOM     12  H5  <0> d           3.155   1.872   1.274  0.00  0.00     0.064 H 
ATOM     13  H6  <0> d           1.646   2.260   2.127  0.00  0.00     0.064 H 
ATOM     14  H7  <0> d          -1.000  -0.381   0.205  0.00  0.00     0.047 H 
ATOM     15  H8  <0> d           0.329  -0.356  -0.977  0.00  0.00     0.047 H 
ENDROOT
BRANCH   4  16
ATOM     16  C6  <0> d           2.777  -0.383   2.601  0.00  0.00     0.017 C 
ATOM     17  H9  <0> d           2.901  -1.437   2.354  0.00  0.00     0.067 H 
ATOM     18  H10 <0> d           3.749   0.112   2.580  0.00  0.00     0.067 H 
BRANCH  16  19
ATOM     19  C7  <0> d           2.170  -0.254   3.999  0.00  0.00     0.032 C 
ATOM     20  H11 <0> d           2.871  -0.643   4.737  0.00  0.00     0.076 H 
ATOM     21  H12 <0> d           1.964   0.795   4.211  0.00  0.00     0.076 H 
BRANCH  19  22
ATOM     22  O2  <0> d           0.952  -1.000   4.060  0.00  0.00    -0.399 OA
ATOM     23  H13 <0> d           0.511  -0.964   4.919  0.00  0.00     0.209 HD
ENDBRANCH  19  22
ENDBRANCH  16  19
ENDBRANCH   4  16
TORSDOF 3
