REMARK  1 active torsions:
REMARK  status: ('A' for Active; 'I' for Inactive)
REMARK    1  A    between atoms: N2_7  and  N3_9 
ROOT
ATOM      1  C1  <0> d           1.972   3.107  -0.000  0.00  0.00    -0.046 A 
ATOM      2  C2  <0> d           3.311   3.088  -0.013  0.00  0.00    -0.042 A 
ATOM      3  S1  <0> d           3.710   1.351  -0.026  0.00  0.00    -0.098 SA
ATOM      4  C3  <0> d           2.066   0.684  -0.014  0.00  0.00     0.054 A 
ATOM      5  C4  <0> d           1.243   1.843   0.000  0.00  0.00     0.097 A 
ATOM      6  N1  <0> d          -0.017   1.394   0.010  0.00  0.00    -0.156 NA
ATOM      7  N2  <0> d           0.002  -0.004   0.002  0.00  0.00    -0.208 N 
ATOM      8  C5  <0> d           1.288  -0.413  -0.013  0.00  0.00     0.035 A 
ATOM      9  H1  <0> d           1.439   4.045   0.010  0.00  0.00     0.087 H 
ATOM     10  H2  <0> d           3.989   3.928  -0.015  0.00  0.00     0.095 H 
ATOM     11  H3  <0> d           1.631  -1.437  -0.022  0.00  0.00     0.118 H 
ENDROOT
BRANCH   7  12
ATOM     12  N3  <0> d          -1.095  -0.818   0.009  0.00  0.00    -0.227 NA
ATOM     13  H4  <0> d          -1.395  -1.029  -0.932  0.00  0.00     0.145 HD
ATOM     14  H5  <0> d          -0.915  -1.663   0.529  0.00  0.00     0.145 HD
ENDBRANCH   7  12
TORSDOF 1
