REMARK  0 active torsions:
REMARK  status: ('A' for Active; 'I' for Inactive)
ROOT
ATOM      1  C1  <0> d          -0.017   1.396   0.010  0.00  0.00    -0.065 A 
ATOM      2  C2  <0> d           1.182   2.059   0.002  0.00  0.00    -0.043 A 
ATOM      3  C3  <0> d           2.367   1.335  -0.013  0.00  0.00     0.128 A 
ATOM      4  N1  <0> d           2.371   0.019  -0.021  0.00  0.00    -0.217 NA
ATOM      5  C4  <0> d           1.240  -0.677  -0.014  0.00  0.00     0.157 A 
ATOM      6  C5  <0> d           0.002  -0.004   0.002  0.00  0.00     0.030 A 
ATOM      7  C6  <0> d          -1.029  -1.036   0.006  0.00  0.00     0.035 A 
ATOM      8  N2  <0> d          -0.430  -2.192  -0.006  0.00  0.00    -0.185 NA
ATOM      9  N3  <0> d           0.957  -2.015  -0.020  0.00  0.00    -0.261 N 
ATOM     10  H1  <0> d           1.614  -2.729  -0.030  0.00  0.00     0.191 HD
ATOM     11 Cl1  <0> d           3.880   2.187  -0.023  0.00  0.00    -0.062 Cl
ATOM     12  H2  <0> d          -0.951   1.938   0.026  0.00  0.00     0.085 H 
ATOM     13  H3  <0> d           1.205   3.139   0.007  0.00  0.00     0.088 H 
ATOM     14  H4  <0> d          -2.096  -0.871   0.017  0.00  0.00     0.118 H 
ENDROOT
TORSDOF 0
