REMARK  6 active torsions:
REMARK  status: ('A' for Active; 'I' for Inactive)
REMARK    1  A    between atoms: C1_1  and  C2_2 
REMARK    2  A    between atoms: C2_2  and  C4_4 
REMARK    3  A    between atoms: C4_4  and  C5_5 
REMARK    4  A    between atoms: C5_5  and  C6_6 
REMARK    5  A    between atoms: C5_5  and  C7_7 
REMARK    6  A    between atoms: C5_5  and  C8_8 
ROOT
ATOM      1  C5  <0> d          -1.316   3.738  -1.408  0.00  0.00    -0.048 C 
ENDROOT
BRANCH   1   2
ATOM      2  C4  <0> d          -1.176   3.222   0.025  0.00  0.00    -0.040 C 
ATOM      3  H6  <0> d          -2.020   3.571   0.621  0.00  0.00     0.040 H 
ATOM      4  H7  <0> d          -0.248   3.596   0.457  0.00  0.00     0.040 H 
BRANCH   2   5
ATOM      5  C2  <0> d          -1.156   1.715   0.017  0.00  0.00    -0.092 C 
ATOM      6  C3  <0> d          -0.013   1.076   0.008  0.00  0.00    -0.119 C 
ATOM      7  H4  <0> d           0.002  -0.004   0.002  0.00  0.00     0.067 H 
ATOM      8  H5  <0> d           0.915   1.629   0.002  0.00  0.00     0.067 H 
BRANCH   5   9
ATOM      9  C1  <0> d          -2.451   0.944   0.019  0.00  0.00    -0.055 C 
ATOM     10  H1  <0> d          -2.758   0.753   1.047  0.00  0.00     0.033 H 
ATOM     11  H2  <0> d          -3.221   1.526  -0.488  0.00  0.00     0.033 H 
ATOM     12  H3  <0> d          -2.310  -0.004  -0.501  0.00  0.00     0.033 H 
ENDBRANCH   5   9
ENDBRANCH   2   5
ENDBRANCH   1   2
BRANCH   1  13
ATOM     13  C6  <0> d          -2.619   3.214  -2.015  0.00  0.00    -0.069 C 
ATOM     14  H8  <0> d          -3.463   3.562  -1.419  0.00  0.00     0.028 H 
ATOM     15  H9  <0> d          -2.718   3.582  -3.036  0.00  0.00     0.028 H 
ATOM     16  H10 <0> d          -2.604   2.124  -2.021  0.00  0.00     0.028 H 
ENDBRANCH   1  13
BRANCH   1  17
ATOM     17  C7  <0> d          -1.337   5.268  -1.400  0.00  0.00    -0.069 C 
ATOM     18  H11 <0> d          -0.408   5.642  -0.968  0.00  0.00     0.028 H 
ATOM     19  H12 <0> d          -1.436   5.636  -2.421  0.00  0.00     0.028 H 
ATOM     20  H13 <0> d          -2.180   5.617  -0.805  0.00  0.00     0.028 H 
ENDBRANCH   1  17
BRANCH   1  21
ATOM     21  C8  <0> d          -0.131   3.249  -2.244  0.00  0.00    -0.069 C 
ATOM     22  H14 <0> d          -0.116   2.159  -2.250  0.00  0.00     0.028 H 
ATOM     23  H15 <0> d          -0.231   3.616  -3.265  0.00  0.00     0.028 H 
ATOM     24  H16 <0> d           0.797   3.622  -1.812  0.00  0.00     0.028 H 
ENDBRANCH   1  21
TORSDOF 6
