REMARK  1 active torsions:
REMARK  status: ('A' for Active; 'I' for Inactive)
REMARK    1  A    between atoms: C3_3  and  N2_8 
ROOT
ATOM      1  C1  <0> d           1.194   2.062   0.002  0.00  0.00    -0.064 A 
ATOM      2  C2  <0> d          -0.017   1.387   0.010  0.00  0.00    -0.052 A 
ATOM      3  C3  <0> d           0.002  -0.004   0.002  0.00  0.00     0.084 A 
ATOM      4  C4  <0> d           1.229  -0.662  -0.013  0.00  0.00     0.236 A 
ATOM      5  N1  <0> d           2.357   0.020  -0.020  0.00  0.00    -0.231 NA
ATOM      6  C5  <0> d           2.371   1.340  -0.013  0.00  0.00     0.005 A 
ATOM      7  F1  <0> d           1.264  -2.013  -0.020  0.00  0.00    -0.182 F 
ATOM      8  H1  <0> d           1.216   3.142   0.007  0.00  0.00     0.085 H 
ATOM      9  H2  <0> d          -0.952   1.927   0.017  0.00  0.00     0.087 H 
ATOM     10  H3  <0> d           3.316   1.863  -0.020  0.00  0.00     0.114 H 
ENDROOT
BRANCH   3  11
ATOM     11  N2  <0> d          -1.193  -0.730   0.010  0.00  0.00    -0.395 N 
ATOM     12  H4  <0> d          -2.044  -0.264   0.021  0.00  0.00     0.156 HD
ATOM     13  H5  <0> d          -1.172  -1.700   0.005  0.00  0.00     0.156 HD
ENDBRANCH   3  11
TORSDOF 1
