REMARK  0 active torsions:
REMARK  status: ('A' for Active; 'I' for Inactive)
ROOT
ATOM      1  C1  <0> d          -1.252   3.049  -1.062  0.00  0.00    -0.039 C 
ATOM      2  C2  <0> d          -1.322   1.968   0.019  0.00  0.00    -0.006 C 
ATOM      3  C3  <0> d          -0.014   1.203   0.009  0.00  0.00     0.150 C 
ATOM      4  O1  <0> d           0.002  -0.004   0.002  0.00  0.00    -0.296 OA
ATOM      5  C4  <0> d           1.271   2.003   0.001  0.00  0.00     0.074 C 
ATOM      6  O2  <0> d           1.170   3.009  -1.013  0.00  0.00    -0.384 OA
ATOM      7  C5  <0> d           0.032   3.862  -0.875  0.00  0.00     0.020 C 
ATOM      8  H1  <0> d          -2.116   3.708  -0.977  0.00  0.00     0.036 H 
ATOM      9  H2  <0> d          -1.245   2.578  -2.045  0.00  0.00     0.036 H 
ATOM     10  H3  <0> d          -2.085   1.352  -0.175  0.00  0.00     0.044 H 
ATOM     11  H4  <0> d          -1.468   2.435   0.993  0.00  0.00     0.044 H 
ATOM     12  H5  <0> d           1.405   2.428   0.896  0.00  0.00     0.086 H 
ATOM     13  H6  <0> d           2.112   1.345  -0.218  0.00  0.00     0.086 H 
ATOM     14  H7  <0> d           0.035   4.312   0.117  0.00  0.00     0.074 H 
ATOM     15  H8  <0> d           0.075   4.647  -1.630  0.00  0.00     0.074 H 
ENDROOT
TORSDOF 0
