REMARK  3 active torsions:
REMARK  status: ('A' for Active; 'I' for Inactive)
REMARK    1  A    between atoms: C1_1  and  C2_2 
REMARK    2  A    between atoms: C4_4  and  N2_11 
REMARK    3  A    between atoms: C6_9  and  C7_10 
ROOT
ATOM      1  C2  <0> d           0.002  -0.004   0.002  0.00  0.00    -0.037 A 
ATOM      2  C3  <0> d           0.006  -0.698  -1.217  0.00  0.00    -0.045 A 
ATOM      3  C4  <0> d           0.025  -2.066  -1.207  0.00  0.00     0.095 A 
ATOM      4  C5  <0> d           0.040  -2.745   0.031  0.00  0.00     0.272 A 
ATOM      5  O1  <0> d           0.058  -3.966   0.058  0.00  0.00    -0.266 OA
ATOM      6  N1  <0> d           0.036  -2.046   1.182  0.00  0.00    -0.325 N 
ATOM      7  H1  <0> d           0.047  -2.518   2.030  0.00  0.00     0.169 HD
ATOM      8  C6  <0> d           0.022  -0.686   1.169  0.00  0.00     0.014 A 
ATOM      9  H5  <0> d          -0.007  -0.159  -2.152  0.00  0.00     0.088 H 
ENDROOT
BRANCH   1  10
ATOM     10  C1  <0> d          -0.018   1.503   0.010  0.00  0.00    -0.049 C 
ATOM     11  H2  <0> d           1.004   1.880   0.003  0.00  0.00     0.033 H 
ATOM     12  H3  <0> d          -0.545   1.864  -0.873  0.00  0.00     0.033 H 
ATOM     13  H4  <0> d          -0.529   1.854   0.907  0.00  0.00     0.033 H 
ENDBRANCH   1  10
BRANCH   8  14
ATOM     14  C7  <0> d           0.024   0.070   2.473  0.00  0.00    -0.037 C 
ATOM     15  H6  <0> d          -1.003   0.238   2.797  0.00  0.00     0.035 H 
ATOM     16  H7  <0> d           0.553  -0.510   3.229  0.00  0.00     0.035 H 
ATOM     17  H8  <0> d           0.523   1.030   2.336  0.00  0.00     0.035 H 
ENDBRANCH   8  14
BRANCH   3  18
ATOM     18  N2  <0> d           0.029  -2.783  -2.409  0.00  0.00    -0.395 N 
ATOM     19  H9  <0> d           0.018  -2.311  -3.256  0.00  0.00     0.156 HD
ATOM     20  H10 <0> d           0.042  -3.753  -2.395  0.00  0.00     0.156 HD
ENDBRANCH   3  18
TORSDOF 3
