REMARK  3 active torsions:
REMARK  status: ('A' for Active; 'I' for Inactive)
REMARK    1  A    between atoms: C1_1  and  C2_2 
REMARK    2  A    between atoms: C5_6  and  O2_11 
REMARK    3  A    between atoms: C6_8  and  O1_10 
ROOT
ATOM      1  C2  <0> d          -0.784   1.609  -1.216  0.00  0.00    -0.030 C 
ATOM      2  H1  <0> d          -0.140   2.251  -1.817  0.00  0.00     0.043 H 
ATOM      3  C3  <0> d          -0.013   1.086   0.008  0.00  0.00    -0.057 C 
ATOM      4  C4  <0> d          -0.763   1.597   1.255  0.00  0.00    -0.038 C 
ATOM      5  C5  <0> d          -1.531   2.845   0.750  0.00  0.00     0.060 C 
ATOM      6  H2  <0> d          -0.871   3.712   0.705  0.00  0.00     0.086 H 
ATOM      7  C6  <0> d          -1.978   2.421  -0.670  0.00  0.00     0.063 C 
ATOM      8  H3  <0> d          -2.159   3.298  -1.292  0.00  0.00     0.087 H 
ATOM      9  H7  <0> d           0.002  -0.004   0.002  0.00  0.00     0.033 H 
ATOM     10  H8  <0> d           1.006   1.473   0.000  0.00  0.00     0.033 H 
ATOM     11  H9  <0> d          -1.460   0.842   1.618  0.00  0.00     0.036 H 
ATOM     12  H10 <0> d          -0.057   1.874   2.038  0.00  0.00     0.036 H 
ENDROOT
BRANCH   1  13
ATOM     13  C1  <0> d          -1.290   0.436  -2.058  0.00  0.00    -0.070 C 
ATOM     14  H4  <0> d          -1.932  -0.199  -1.448  0.00  0.00     0.028 H 
ATOM     15  H5  <0> d          -1.857   0.816  -2.908  0.00  0.00     0.028 H 
ATOM     16  H6  <0> d          -0.440  -0.145  -2.418  0.00  0.00     0.028 H 
ENDBRANCH   1  13
BRANCH   7  17
ATOM     17  O1  <0> d          -3.149   1.604  -0.603  0.00  0.00    -0.393 OA
ATOM     18  H11 <0> d          -3.930   2.064  -0.267  0.00  0.00     0.210 HD
ENDBRANCH   7  17
BRANCH   5  19
ATOM     19  O2  <0> d          -2.664   3.112   1.579  0.00  0.00    -0.393 OA
ATOM     20  H12 <0> d          -2.438   3.382   2.480  0.00  0.00     0.210 HD
ENDBRANCH   5  19
TORSDOF 3
