REMARK  1 active torsions:
REMARK  status: ('A' for Active; 'I' for Inactive)
REMARK    1  A    between atoms: C5_5  and  O1_7 
ROOT
ATOM      1  C1  <0> d           3.264  -2.016  -0.041  0.00  0.00    -0.080 A 
ATOM      2  C2  <0> d           1.900  -1.815  -0.026  0.00  0.00    -0.072 A 
ATOM      3  C3  <0> d           1.385  -0.515  -0.014  0.00  0.00    -0.027 A 
ATOM      4  C4  <0> d           2.267   0.566  -0.017  0.00  0.00    -0.011 A 
ATOM      5  C5  <0> d           3.631   0.357  -0.031  0.00  0.00     0.073 A 
ATOM      6  C6  <0> d           4.131  -0.940  -0.043  0.00  0.00    -0.050 A 
ATOM      7  C7  <0> d           1.412   1.810  -0.002  0.00  0.00    -0.022 A 
ATOM      8  C8  <0> d          -0.016   1.317   0.009  0.00  0.00    -0.098 A 
ATOM      9  C9  <0> d           0.002  -0.004   0.002  0.00  0.00    -0.076 A 
ATOM     10  H1  <0> d           3.658  -3.022  -0.050  0.00  0.00     0.083 H 
ATOM     11  H2  <0> d           1.229  -2.661  -0.024  0.00  0.00     0.084 H 
ATOM     12  H3  <0> d           5.199  -1.106  -0.054  0.00  0.00     0.087 H 
ATOM     13  H5  <0> d           1.599   2.407  -0.895  0.00  0.00     0.046 H 
ATOM     14  H6  <0> d           1.616   2.397   0.894  0.00  0.00     0.046 H 
ATOM     15  H7  <0> d          -0.899   1.938   0.017  0.00  0.00     0.077 H 
ATOM     16  H8  <0> d          -0.880  -0.627   0.007  0.00  0.00     0.084 H 
ENDROOT
BRANCH   5  17
ATOM     17  O1  <0> d           4.483   1.416  -0.033  0.00  0.00    -0.360 OA
ATOM     18  H4  <0> d           4.738   1.717   0.850  0.00  0.00     0.217 HD
ENDBRANCH   5  17
TORSDOF 1
