REMARK  6 active torsions:
REMARK  status: ('A' for Active; 'I' for Inactive)
REMARK    1  A    between atoms: C1_1  and  C2_2 
REMARK    2  A    between atoms: C5_6  and  C9_10 
REMARK    3  A    between atoms: C5_6  and  C10_11 
REMARK    4  A    between atoms: C6_7  and  C7_8 
REMARK    5  A    between atoms: C6_7  and  C8_9 
REMARK    6  A    between atoms: C10_11  and  O1_12 
ROOT
ATOM      1  C2  <0> d           0.002  -0.004   0.002  0.00  0.00    -0.050 C 
ATOM      2  H1  <0> d          -1.014  -0.398  -0.003  0.00  0.00     0.040 H 
ATOM      3  C3  <0> d           0.793  -0.529  -1.222  0.00  0.00    -0.060 C 
ATOM      4  C4  <0> d           1.230  -1.944  -0.764  0.00  0.00    -0.055 C 
ATOM      5  C5  <0> d           1.564  -1.774   0.732  0.00  0.00    -0.015 C 
ATOM      6  C6  <0> d           0.783  -0.540   1.219  0.00  0.00    -0.035 C 
ATOM      7  H5  <0> d           0.151  -0.586  -2.101  0.00  0.00     0.033 H 
ATOM      8  H6  <0> d           1.663   0.098  -1.417  0.00  0.00     0.033 H 
ATOM      9  H7  <0> d           2.110  -2.270  -1.317  0.00  0.00     0.034 H 
ATOM     10  H8  <0> d           0.414  -2.655  -0.894  0.00  0.00     0.034 H 
ENDROOT
BRANCH   5  11
ATOM     11  C9  <0> d           3.066  -1.547   0.911  0.00  0.00    -0.066 C 
ATOM     12  H15 <0> d           3.285  -1.378   1.966  0.00  0.00     0.028 H 
ATOM     13  H16 <0> d           3.610  -2.426   0.564  0.00  0.00     0.028 H 
ATOM     14  H17 <0> d           3.374  -0.677   0.332  0.00  0.00     0.028 H 
ENDBRANCH   5  11
BRANCH   5  15
ATOM     15  C10 <0> d           1.123  -3.014   1.512  0.00  0.00     0.024 C 
ATOM     16  H18 <0> d           1.318  -2.863   2.574  0.00  0.00     0.075 H 
ATOM     17  H19 <0> d           0.057  -3.181   1.358  0.00  0.00     0.075 H 
BRANCH  15  18
ATOM     18  O1  <0> d           1.855  -4.152   1.051  0.00  0.00    -0.400 OA
ATOM     19  H20 <0> d           1.627  -4.976   1.502  0.00  0.00     0.209 HD
ENDBRANCH  15  18
ENDBRANCH   5  15
BRANCH   6  20
ATOM     20  C7  <0> d           1.754   0.526   1.730  0.00  0.00    -0.068 C 
ATOM     21  H9  <0> d           1.194   1.405   2.050  0.00  0.00     0.028 H 
ATOM     22  H10 <0> d           2.320   0.129   2.573  0.00  0.00     0.028 H 
ATOM     23  H11 <0> d           2.441   0.805   0.931  0.00  0.00     0.028 H 
ENDBRANCH   6  20
BRANCH   6  24
ATOM     24  C8  <0> d          -0.189  -0.940   2.331  0.00  0.00    -0.068 C 
ATOM     25  H12 <0> d          -0.876  -1.699   1.957  0.00  0.00     0.028 H 
ATOM     26  H13 <0> d           0.371  -1.341   3.176  0.00  0.00     0.028 H 
ATOM     27  H14 <0> d          -0.754  -0.065   2.652  0.00  0.00     0.028 H 
ENDBRANCH   6  24
BRANCH   1  28
ATOM     28  C1  <0> d          -0.019   1.526   0.010  0.00  0.00    -0.072 C 
ATOM     29  H2  <0> d           1.004   1.903   0.003  0.00  0.00     0.028 H 
ATOM     30  H3  <0> d          -0.546   1.887  -0.873  0.00  0.00     0.028 H 
ATOM     31  H4  <0> d          -0.529   1.877   0.907  0.00  0.00     0.028 H 
ENDBRANCH   1  28
TORSDOF 6
