REMARK  1 active torsions:
REMARK  status: ('A' for Active; 'I' for Inactive)
REMARK    1  A    between atoms: C2_2  and  C4_7 
ROOT
ATOM      1  C1  <0> d          -2.609   1.100   0.020  0.00  0.00    -0.016 A 
ATOM      2  C2  <0> d          -1.329   1.940   0.019  0.00  0.00     0.067 A 
ATOM      3  H1  <0> d          -1.346   2.881  -0.530  0.00  0.00     0.061 H 
ATOM      4  C3  <0> d          -2.182   1.846   1.286  0.00  0.00     0.127 A 
ATOM      5 Cl1  <0> d          -1.535   0.864   2.653  0.00  0.00    -0.101 Cl
ATOM      6 Cl2  <0> d          -3.136   3.301   1.757  0.00  0.00    -0.101 Cl
ATOM      7  H2  <0> d          -3.467   1.489  -0.528  0.00  0.00     0.039 H 
ATOM      8  H3  <0> d          -2.499   0.016   0.014  0.00  0.00     0.039 H 
ENDROOT
BRANCH   2   9
ATOM      9  C4  <0> d          -0.014   1.204   0.009  0.00  0.00     0.180 C 
ATOM     10  O1  <0> d           0.002  -0.004   0.002  0.00  0.00    -0.648 OA
ATOM     11  O2  <0> d           1.139   1.891   0.001  0.00  0.00    -0.648 OA
ENDBRANCH   2   9
TORSDOF 1
