REMARK  0 active torsions:
REMARK  status: ('A' for Active; 'I' for Inactive)
ROOT
ATOM      1  C1  <0> d           1.108   3.458   0.010  0.00  0.00     0.042 A 
ATOM      2  C2  <0> d           1.168   2.076   0.002  0.00  0.00     0.174 A 
ATOM      3  C3  <0> d          -0.016   1.347   0.009  0.00  0.00     0.179 A 
ATOM      4  C4  <0> d          -1.219   2.043   0.019  0.00  0.00     0.093 A 
ATOM      5  C5  <0> d          -1.197   3.425   0.032  0.00  0.00     0.026 A 
ATOM      6  N1  <0> d          -0.054   4.082   0.025  0.00  0.00    -0.268 NA
ATOM      7 Cl1  <0> d          -2.730   1.187   0.021  0.00  0.00    -0.079 Cl
ATOM      8  F1  <0> d           0.002  -0.004   0.002  0.00  0.00    -0.201 F 
ATOM      9  F2  <0> d           2.362   1.443  -0.013  0.00  0.00    -0.201 F 
ATOM     10  H1  <0> d           2.022   4.032   0.004  0.00  0.00     0.119 H 
ATOM     11  H2  <0> d          -2.128   3.973   0.045  0.00  0.00     0.117 H 
ENDROOT
TORSDOF 0
