REMARK  0 active torsions:
REMARK  status: ('A' for Active; 'I' for Inactive)
ROOT
ATOM      1  C1  <0> d          -1.226   2.131   0.019  0.00  0.00     0.028 A 
ATOM      2  C2  <0> d          -0.017   1.428   0.010  0.00  0.00     0.117 A 
ATOM      3  C3  <0> d           1.180   2.169   0.002  0.00  0.00     0.223 A 
ATOM      4  N1  <0> d           1.111   3.494   0.010  0.00  0.00    -0.214 NA
ATOM      5  C4  <0> d          -0.054   4.111   0.025  0.00  0.00     0.089 A 
ATOM      6  N2  <0> d          -1.197   3.453   0.032  0.00  0.00    -0.252 NA
ATOM      7  O1  <0> d           2.379   1.542  -0.013  0.00  0.00    -0.168 OA
ATOM      8  C5  <0> d           0.002  -0.004   0.002  0.00  0.00     0.105 C 
ATOM      9  N3  <0> d           0.018  -1.140  -0.004  0.00  0.00    -0.191 NA
ATOM     10  H1  <0> d          -2.168   1.603   0.021  0.00  0.00     0.117 H 
ATOM     11  H2  <0> d          -0.073   5.191   0.031  0.00  0.00     0.146 H 
ENDROOT
TORSDOF 0
