REMARK  5 active torsions:
REMARK  status: ('A' for Active; 'I' for Inactive)
REMARK    1  A    between atoms: C1_1  and  O1_2 
REMARK    2  A    between atoms: O1_2  and  C2_3 
REMARK    3  A    between atoms: C2_3  and  C3_5 
REMARK    4  A    between atoms: C3_5  and  C4_7 
REMARK    5  A    between atoms: C3_5  and  N1_12 
ROOT
ATOM      1  C3  <0> d           1.279   2.109   0.001  0.00  0.00     0.258 C 
ATOM      2  H1  <0> d           2.008   1.633   0.673  0.00  0.00     0.115 H 
ENDROOT
BRANCH   1   3
ATOM      3  C2  <0> d          -0.016   1.338   0.009  0.00  0.00     0.298 C 
ATOM      4  O2  <0> d          -1.071   1.928   0.018  0.00  0.00    -0.262 OA
BRANCH   3   5
ATOM      5  O1  <0> d           0.002  -0.004   0.002  0.00  0.00    -0.325 OA
BRANCH   5   6
ATOM      6  C1  <0> d          -1.282  -0.681   0.011  0.00  0.00     0.013 C 
ATOM      7  H2  <0> d          -1.124  -1.769   0.003  0.00  0.00     0.067 H 
ATOM      8  H3  <0> d          -1.857  -0.388  -0.881  0.00  0.00     0.067 H 
ATOM      9  H4  <0> d          -1.840  -0.398   0.916  0.00  0.00     0.067 H 
ENDBRANCH   5   6
ENDBRANCH   3   5
ENDBRANCH   1   3
BRANCH   1  10
ATOM     10  C4  <0> d           1.823   2.162  -1.403  0.00  0.00     0.095 A 
ATOM     11  O3  <0> d           1.417   2.998  -2.372  0.00  0.00    -0.324 OA
ATOM     12  C7  <0> d           2.122   2.763  -3.491  0.00  0.00     0.019 A 
ATOM     13  C6  <0> d           2.991   1.767  -3.244  0.00  0.00    -0.059 A 
ATOM     14  H7  <0> d           2.009   3.286  -4.429  0.00  0.00     0.123 H 
ATOM     15  C5  <0> d           2.803   1.383  -1.897  0.00  0.00    -0.050 A 
ATOM     16  H6  <0> d           3.701   1.345  -3.940  0.00  0.00     0.086 H 
ATOM     17  H5  <0> d           3.340   0.611  -1.366  0.00  0.00     0.087 H 
ENDBRANCH   1  10
BRANCH   1  18
ATOM     18  N1  <0> d           1.038   3.475   0.484  0.00  0.00     0.099 N 
ATOM     19  H8  <0> d           1.983   4.038   0.478  0.00  0.00     0.314 HD
ATOM     20  H9  <0> d           0.310   3.974  -0.173  0.00  0.00     0.314 HD
ENDBRANCH   1  18
TORSDOF 5
