REMARK  2 active torsions:
REMARK  status: ('A' for Active; 'I' for Inactive)
REMARK    1  A    between atoms: C1_1  and  O1_2 
REMARK    2  A    between atoms: O1_2  and  C2_3 
ROOT
ATOM      1  C2  <0> d           0.002  -0.004   0.002  0.00  0.00     0.064 C 
ATOM      2  H1  <0> d          -0.048  -0.377  -1.021  0.00  0.00     0.090 H 
ATOM      3  C3  <0> d          -0.019   1.539   0.011  0.00  0.00    -0.033 C 
ATOM      4  C4  <0> d           1.484   1.891  -0.002  0.00  0.00    -0.038 C 
ATOM      5  C5  <0> d           2.174   0.703   0.634  0.00  0.00    -0.049 A 
ATOM      6  C6  <0> d           1.323  -0.386   0.636  0.00  0.00    -0.023 A 
ATOM      7  C7  <0> d           1.746  -1.590   1.172  0.00  0.00    -0.074 A 
ATOM      8  C8  <0> d           3.015  -1.707   1.703  0.00  0.00    -0.082 A 
ATOM      9  C9  <0> d           3.867  -0.618   1.701  0.00  0.00    -0.082 A 
ATOM     10  C10 <0> d           3.446   0.585   1.167  0.00  0.00    -0.076 A 
ATOM     11  H5  <0> d          -0.514   1.925  -0.880  0.00  0.00     0.037 H 
ATOM     12  H6  <0> d          -0.497   1.915   0.915  0.00  0.00     0.037 H 
ATOM     13  H7  <0> d           1.832   2.027  -1.026  0.00  0.00     0.040 H 
ATOM     14  H8  <0> d           1.666   2.792   0.584  0.00  0.00     0.040 H 
ATOM     15  H9  <0> d           1.081  -2.442   1.174  0.00  0.00     0.084 H 
ATOM     16  H10 <0> d           3.343  -2.648   2.120  0.00  0.00     0.083 H 
ATOM     17  H11 <0> d           4.859  -0.707   2.117  0.00  0.00     0.083 H 
ATOM     18  H12 <0> d           4.112   1.435   1.166  0.00  0.00     0.084 H 
ENDROOT
BRANCH   1  19
ATOM     19  O1  <0> d          -1.085  -0.519   0.773  0.00  0.00    -0.386 OA
BRANCH  19  20
ATOM     20  C1  <0> d          -1.570  -1.785   0.322  0.00  0.00     0.005 C 
ATOM     21  H2  <0> d          -1.919  -1.695  -0.707  0.00  0.00     0.066 H 
ATOM     22  H3  <0> d          -0.766  -2.520   0.369  0.00  0.00     0.066 H 
ATOM     23  H4  <0> d          -2.394  -2.107   0.958  0.00  0.00     0.066 H 
ENDBRANCH  19  20
ENDBRANCH   1  19
TORSDOF 2
