REMARK  2 active torsions:
REMARK  status: ('A' for Active; 'I' for Inactive)
REMARK    1  A    between atoms: C3_3  and  C6_10 
REMARK    2  A    between atoms: C4_5  and  C5_7 
REMARK       I    between atoms: C5_7  and  N1_9 
REMARK       I    between atoms: C6_10  and  N2_12 
ROOT
ATOM      1  C1  <0> d          -2.063   1.621   0.032  0.00  0.00    -0.052 C 
ATOM      2  C2  <0> d          -0.959   1.695  -1.040  0.00  0.00    -0.052 C 
ATOM      3  C3  <0> d          -0.013   1.086   0.008  0.00  0.00     0.035 C 
ATOM      4  H1  <0> d           0.002  -0.004   0.002  0.00  0.00     0.056 H 
ATOM      5  C4  <0> d          -0.939   1.683   1.080  0.00  0.00     0.035 C 
ATOM      6  H2  <0> d          -0.670   2.699   1.373  0.00  0.00     0.056 H 
ATOM      7  H3  <0> d          -2.608   0.677   0.033  0.00  0.00     0.034 H 
ATOM      8  H4  <0> d          -2.720   2.490   0.045  0.00  0.00     0.034 H 
ATOM      9  H5  <0> d          -0.696   2.713  -1.326  0.00  0.00     0.034 H 
ATOM     10  H6  <0> d          -1.137   1.046  -1.897  0.00  0.00     0.034 H 
ENDROOT
BRANCH   3  11
ATOM     11  C6  <0> d           1.368   1.690  -0.002  0.00  0.00     0.220 C 
ATOM     12  O2  <0> d           1.663   2.543   0.808  0.00  0.00    -0.273 OA
ATOM     13  N2  <0> d           2.275   1.282  -0.911  0.00  0.00    -0.370 N 
ATOM     14  H9  <0> d           2.040   0.600  -1.559  0.00  0.00     0.159 HD
ATOM     15  H10 <0> d           3.164   1.671  -0.918  0.00  0.00     0.159 HD
ENDBRANCH   3  11
BRANCH   5  16
ATOM     16  C5  <0> d          -1.161   0.774   2.261  0.00  0.00     0.220 C 
ATOM     17  O1  <0> d          -0.627  -0.315   2.297  0.00  0.00    -0.273 OA
ATOM     18  N1  <0> d          -1.952   1.170   3.278  0.00  0.00    -0.370 N 
ATOM     19  H7  <0> d          -2.379   2.041   3.249  0.00  0.00     0.159 HD
ATOM     20  H8  <0> d          -2.095   0.585   4.038  0.00  0.00     0.159 HD
ENDBRANCH   5  16
TORSDOF 2
