REMARK  1 active torsions:
REMARK  status: ('A' for Active; 'I' for Inactive)
REMARK    1  A    between atoms: C1_1  and  C2_2 
ROOT
ATOM      1  C2  <0> d          -0.718   1.572   1.248  0.00  0.00    -0.051 A 
ATOM      2  C3  <0> d          -2.068   1.788   1.231  0.00  0.00    -0.076 A 
ATOM      3  C4  <0> d          -2.734   2.230   2.366  0.00  0.00    -0.081 A 
ATOM      4  C5  <0> d          -2.047   2.473   3.536  0.00  0.00    -0.067 A 
ATOM      5  C6  <0> d          -0.669   2.265   3.576  0.00  0.00     0.043 A 
ATOM      6  C7  <0> d           0.004   1.809   2.418  0.00  0.00    -0.013 A 
ATOM      7  C8  <0> d           1.451   1.600   2.492  0.00  0.00    -0.057 A 
ATOM      8  C9  <0> d           2.094   1.844   3.645  0.00  0.00    -0.019 A 
ATOM      9  N1  <0> d           1.449   2.284   4.765  0.00  0.00    -0.333 N 
ATOM     10  H1  <0> d           1.965   2.444   5.571  0.00  0.00     0.168 HD
ATOM     11  C10 <0> d           0.119   2.504   4.790  0.00  0.00     0.256 A 
ATOM     12  O1  <0> d          -0.421   2.897   5.808  0.00  0.00    -0.267 OA
ATOM     13  H5  <0> d          -2.625   1.609   0.323  0.00  0.00     0.084 H 
ATOM     14  H6  <0> d          -3.801   2.390   2.331  0.00  0.00     0.083 H 
ATOM     15  H7  <0> d          -2.571   2.821   4.413  0.00  0.00     0.085 H 
ATOM     16  H8  <0> d           1.996   1.253   1.627  0.00  0.00     0.086 H 
ATOM     17  H9  <0> d           3.162   1.686   3.689  0.00  0.00     0.111 H 
ENDROOT
BRANCH   1  18
ATOM     18  C1  <0> d          -0.013   1.086   0.008  0.00  0.00    -0.050 C 
ATOM     19  H2  <0> d           0.002  -0.004   0.002  0.00  0.00     0.033 H 
ATOM     20  H3  <0> d           1.010   1.463   0.000  0.00  0.00     0.033 H 
ATOM     21  H4  <0> d          -0.540   1.447  -0.875  0.00  0.00     0.033 H 
ENDBRANCH   1  18
TORSDOF 1
