REMARK  2 active torsions:
REMARK  status: ('A' for Active; 'I' for Inactive)
REMARK    1  A    between atoms: C2_2  and  O3_9 
REMARK    2  A    between atoms: C3_4  and  O2_8 
ROOT
ATOM      1  C1  <0> d           1.503   2.459  -1.314  0.00  0.00     0.046 C 
ATOM      2  C2  <0> d           1.427   1.647  -0.003  0.00  0.00     0.082 C 
ATOM      3  H1  <0> d           2.153   0.834  -0.012  0.00  0.00     0.090 H 
ATOM      4  C3  <0> d          -0.013   1.086   0.008  0.00  0.00     0.082 C 
ATOM      5  H2  <0> d           0.002  -0.004   0.002  0.00  0.00     0.090 H 
ATOM      6  C4  <0> d          -0.636   1.626  -1.298  0.00  0.00     0.046 C 
ATOM      7  O1  <0> d           0.134   2.807  -1.613  0.00  0.00    -0.386 OA
ATOM      8  H3  <0> d           2.100   3.360  -1.169  0.00  0.00     0.078 H 
ATOM      9  H4  <0> d           1.924   1.850  -2.114  0.00  0.00     0.078 H 
ATOM     10  H5  <0> d          -0.543   0.889  -2.096  0.00  0.00     0.078 H 
ATOM     11  H6  <0> d          -1.682   1.886  -1.140  0.00  0.00     0.078 H 
ENDROOT
BRANCH   2  12
ATOM     12  O3  <0> d           1.642   2.497   1.126  0.00  0.00    -0.391 OA
ATOM     13  H8  <0> d           2.530   2.876   1.169  0.00  0.00     0.210 HD
ENDBRANCH   2  12
BRANCH   4  14
ATOM     14  O2  <0> d          -0.730   1.569   1.145  0.00  0.00    -0.391 OA
ATOM     15  H7  <0> d          -1.649   1.272   1.187  0.00  0.00     0.210 HD
ENDBRANCH   4  14
TORSDOF 2
