REMARK  0 active torsions:
REMARK  status: ('A' for Active; 'I' for Inactive)
ROOT
ATOM      1  C1  <0> d          -0.017   1.381   0.010  0.00  0.00    -0.064 A 
ATOM      2  C2  <0> d           1.158   2.097   0.002  0.00  0.00    -0.051 A 
ATOM      3  C3  <0> d           2.389   1.399  -0.013  0.00  0.00     0.092 A 
ATOM      4  C4  <0> d           2.293  -0.013  -0.020  0.00  0.00     0.127 A 
ATOM      5  N1  <0> d           1.152  -0.653  -0.012  0.00  0.00    -0.251 NA
ATOM      6  C5  <0> d           0.002  -0.004   0.002  0.00  0.00     0.004 A 
ATOM      7  S1  <0> d           4.005  -0.498  -0.039  0.00  0.00    -0.061 SA
ATOM      8  C6  <0> d           4.704   1.147  -0.037  0.00  0.00     0.043 A 
ATOM      9  N2  <0> d           3.640   1.903  -0.022  0.00  0.00    -0.251 NA
ATOM     10  H1  <0> d          -0.962   1.904   0.026  0.00  0.00     0.085 H 
ATOM     11  H2  <0> d           1.141   3.177   0.008  0.00  0.00     0.087 H 
ATOM     12  H3  <0> d          -0.927  -0.555   0.008  0.00  0.00     0.114 H 
ATOM     13  H4  <0> d           5.743   1.441  -0.045  0.00  0.00     0.126 H 
ENDROOT
TORSDOF 0
