REMARK  3 active torsions:
REMARK  status: ('A' for Active; 'I' for Inactive)
REMARK    1  A    between atoms: C1_1  and  O1_2 
REMARK    2  A    between atoms: O1_2  and  C2_3 
REMARK    3  A    between atoms: C6_7  and  N1_9 
ROOT
ATOM      1  C2  <0> d          -1.975   1.163   1.348  0.00  0.00     0.070 A 
ATOM      2  C3  <0> d          -2.589   0.364   0.394  0.00  0.00    -0.048 A 
ATOM      3  C4  <0> d          -3.903  -0.031   0.561  0.00  0.00    -0.041 A 
ATOM      4  C5  <0> d          -4.613   0.377   1.675  0.00  0.00     0.142 A 
ATOM      5  C6  <0> d          -4.004   1.182   2.632  0.00  0.00     0.067 A 
ATOM      6  C7  <0> d          -2.683   1.574   2.466  0.00  0.00    -0.023 A 
ATOM      7  F1  <0> d          -5.899  -0.007   1.835  0.00  0.00    -0.204 F 
ATOM      8  H4  <0> d          -2.037   0.047  -0.479  0.00  0.00     0.087 H 
ATOM      9  H5  <0> d          -4.376  -0.657  -0.181  0.00  0.00     0.088 H 
ATOM     10  H6  <0> d          -2.208   2.200   3.208  0.00  0.00     0.091 H 
ENDROOT
BRANCH   1  11
ATOM     11  O1  <0> d          -0.682   1.547   1.184  0.00  0.00    -0.356 OA
BRANCH  11  12
ATOM     12  C1  <0> d          -0.013   1.086   0.008  0.00  0.00     0.010 C 
ATOM     13  H1  <0> d           1.019   1.467   0.000  0.00  0.00     0.066 H 
ATOM     14  H2  <0> d          -0.545   1.450  -0.883  0.00  0.00     0.066 H 
ATOM     15  H3  <0> d           0.002  -0.014   0.002  0.00  0.00     0.066 H 
ENDBRANCH  11  12
ENDBRANCH   1  11
BRANCH   5  16
ATOM     16  N1  <0> d          -4.721   1.595   3.759  0.00  0.00    -0.397 N 
ATOM     17  H7  <0> d          -4.239   2.232   4.515  0.00  0.00     0.156 HD
ATOM     18  H8  <0> d          -5.768   1.283   3.890  0.00  0.00     0.156 HD
ENDBRANCH   5  16
TORSDOF 3
