REMARK  2 active torsions:
REMARK  status: ('A' for Active; 'I' for Inactive)
REMARK    1  A    between atoms: C2_2  and  C3_3 
REMARK    2  A    between atoms: C3_3  and  O3_13 
ROOT
ATOM      1  C1  <0> d           0.312   0.413   3.401  0.00  0.00    -0.151 C 
ATOM      2  C2  <0> d          -0.151   0.931   2.454  0.00  0.00    -0.074 C 
ATOM      3  H3  <0> d           0.726  -0.050   4.247  0.00  0.00     0.166 H 
ENDROOT
BRANCH   2   4
ATOM      4  C3  <0> d          -0.732   1.581   1.268  0.00  0.00     0.169 C 
ATOM      5  C8  <0> d          -2.223   1.222   1.160  0.00  0.00     0.172 C 
ATOM      6  O1  <0> d          -2.326  -0.172   0.814  0.00  0.00    -0.355 OA
ATOM      7  H2  <0> d          -2.765   1.445   2.079  0.00  0.00     0.135 H 
ATOM      8  O2  <0> d          -2.766   1.950   0.037  0.00  0.00    -0.350 OA
ATOM      9  C7  <0> d          -2.316  -0.249  -0.623  0.00  0.00     0.047 C 
ATOM     10  C6  <0> d          -2.241   1.220  -1.100  0.00  0.00     0.062 C 
ATOM     11  H8  <0> d          -3.231  -0.718  -0.984  0.00  0.00     0.078 H 
ATOM     12  H9  <0> d          -1.443  -0.804  -0.966  0.00  0.00     0.078 H 
ATOM     13  C5  <0> d          -0.756   1.594  -1.233  0.00  0.00    -0.035 C 
ATOM     14  H1  <0> d          -2.800   1.393  -2.020  0.00  0.00     0.086 H 
ATOM     15  C4  <0> d          -0.013   1.086   0.008  0.00  0.00    -0.019 C 
ATOM     16  H6  <0> d          -0.655   2.678  -1.301  0.00  0.00     0.037 H 
ATOM     17  H7  <0> d          -0.337   1.131  -2.126  0.00  0.00     0.037 H 
ATOM     18  H4  <0> d           0.002  -0.004   0.002  0.00  0.00     0.039 H 
ATOM     19  H5  <0> d           1.010   1.464   0.000  0.00  0.00     0.039 H 
BRANCH   4  20
ATOM     20  O3  <0> d          -0.587   2.998   1.376  0.00  0.00    -0.373 OA
ATOM     21  H10 <0> d           0.331   3.296   1.437  0.00  0.00     0.212 HD
ENDBRANCH   4  20
ENDBRANCH   2   4
TORSDOF 2
