REMARK  0 active torsions:
REMARK  status: ('A' for Active; 'I' for Inactive)
ROOT
ATOM      1  C1  <0> d           1.190  -0.707  -0.013  0.00  0.00    -0.048 A 
ATOM      2  C2  <0> d           0.002  -0.004   0.002  0.00  0.00     0.003 A 
ATOM      3  N1  <0> d          -0.016   1.317   0.009  0.00  0.00    -0.271 NA
ATOM      4  C3  <0> d           1.081   2.044   0.003  0.00  0.00     0.030 A 
ATOM      5  C4  <0> d           2.332   1.423  -0.013  0.00  0.00     0.091 A 
ATOM      6  C5  <0> d           2.385   0.010  -0.020  0.00  0.00     0.064 A 
ATOM      7  C6  <0> d           3.705  -0.636  -0.035  0.00  0.00     0.259 A 
ATOM      8  O1  <0> d           3.818  -1.847  -0.042  0.00  0.00    -0.267 OA
ATOM      9  N2  <0> d           4.791   0.175  -0.041  0.00  0.00    -0.317 N 
ATOM     10  H1  <0> d           5.801  -0.260  -0.052  0.00  0.00     0.169 HD
ATOM     11  C7  <0> d           4.645   1.525  -0.033  0.00  0.00     0.067 A 
ATOM     12  N3  <0> d           3.492   2.123  -0.020  0.00  0.00    -0.242 NA
ATOM     13  H2  <0> d           1.194  -1.787  -0.018  0.00  0.00     0.087 H 
ATOM     14  H3  <0> d          -0.932  -0.545   0.008  0.00  0.00     0.114 H 
ATOM     15  H4  <0> d           1.014   3.122   0.009  0.00  0.00     0.118 H 
ATOM     16  H5  <0> d           5.537   2.135  -0.039  0.00  0.00     0.143 H 
ENDROOT
TORSDOF 0
