REMARK  1 active torsions:
REMARK  status: ('A' for Active; 'I' for Inactive)
REMARK    1  A    between atoms: C4_4  and  N2_9 
ROOT
ATOM      1  C1  <0> d          -0.057   4.163   0.025  0.00  0.00    -0.081 A 
ATOM      2  C2  <0> d          -1.243   3.448   0.033  0.00  0.00    -0.081 A 
ATOM      3  C3  <0> d          -1.227   2.068   0.019  0.00  0.00    -0.056 A 
ATOM      4  C4  <0> d          -0.017   1.386   0.010  0.00  0.00     0.046 A 
ATOM      5  C5  <0> d           1.187   2.108   0.002  0.00  0.00     0.070 A 
ATOM      6  C6  <0> d           1.154   3.505   0.010  0.00  0.00    -0.061 A 
ATOM      7  C7  <0> d           2.441   1.417  -0.014  0.00  0.00     0.101 C 
ATOM      8  N1  <0> d           3.436   0.869  -0.027  0.00  0.00    -0.191 NA
ATOM      9  H1  <0> d          -0.081   5.243   0.031  0.00  0.00     0.083 H 
ATOM     10  H2  <0> d          -2.187   3.973   0.044  0.00  0.00     0.083 H 
ATOM     11  H3  <0> d          -2.156   1.517   0.020  0.00  0.00     0.086 H 
ATOM     12  H4  <0> d           2.075   4.068   0.004  0.00  0.00     0.086 H 
ENDROOT
BRANCH   4  13
ATOM     13  N2  <0> d           0.002  -0.004   0.002  0.00  0.00    -0.398 N 
ATOM     14  H5  <0> d           0.849  -0.478  -0.009  0.00  0.00     0.156 HD
ATOM     15  H6  <0> d          -0.831  -0.500   0.007  0.00  0.00     0.156 HD
ENDBRANCH   4  13
TORSDOF 1
