REMARK  1 active torsions:
REMARK  status: ('A' for Active; 'I' for Inactive)
REMARK    1  A    between atoms: C1_1  and  C2_2 
ROOT
ATOM      1  C2  <0> d          -1.193   3.419   0.031  0.00  0.00    -0.018 A 
ATOM      2  C3  <0> d          -1.223   2.034   0.019  0.00  0.00    -0.035 A 
ATOM      3  C4  <0> d          -0.016   1.347   0.009  0.00  0.00     0.134 A 
ATOM      4  C5  <0> d           1.168   2.064   0.002  0.00  0.00     0.041 A 
ATOM      5  N1  <0> d           1.157   3.383   0.009  0.00  0.00    -0.245 NA
ATOM      6  C6  <0> d           0.029   4.068   0.023  0.00  0.00     0.131 A 
ATOM      7 Cl1  <0> d           0.079   5.803   0.031  0.00  0.00    -0.062 Cl
ATOM      8  F1  <0> d           0.002  -0.004   0.002  0.00  0.00    -0.205 F 
ATOM      9  H4  <0> d          -2.163   1.501   0.020  0.00  0.00     0.089 H 
ATOM     10  H5  <0> d           2.111   1.538  -0.009  0.00  0.00     0.119 H 
ENDROOT
BRANCH   1  11
ATOM     11  C1  <0> d          -2.476   4.210   0.048  0.00  0.00    -0.048 C 
ATOM     12  H1  <0> d          -2.795   4.406  -0.975  0.00  0.00     0.033 H 
ATOM     13  H2  <0> d          -3.247   3.640   0.567  0.00  0.00     0.033 H 
ATOM     14  H3  <0> d          -2.313   5.155   0.566  0.00  0.00     0.033 H 
ENDBRANCH   1  11
TORSDOF 1
