REMARK  0 active torsions:
REMARK  status: ('A' for Active; 'I' for Inactive)
ROOT
ATOM      1  C1  <0> d          -3.997   2.138   0.063  0.00  0.00    -0.082 A 
ATOM      2  C2  <0> d          -3.550   0.835   0.053  0.00  0.00    -0.071 A 
ATOM      3  C3  <0> d          -2.167   0.642   0.033  0.00  0.00    -0.007 A 
ATOM      4  C4  <0> d          -1.264  -0.493   0.015  0.00  0.00    -0.056 A 
ATOM      5  C5  <0> d           0.002  -0.004   0.002  0.00  0.00    -0.019 A 
ATOM      6  N1  <0> d          -0.016   1.356   0.009  0.00  0.00    -0.356 N 
ATOM      7  C6  <0> d          -1.326   1.767   0.031  0.00  0.00     0.051 A 
ATOM      8  C7  <0> d          -1.788   3.080   0.033  0.00  0.00    -0.030 A 
ATOM      9  C8  <0> d          -3.148   3.243   0.053  0.00  0.00    -0.075 A 
ATOM     10  C9  <0> d          -0.743   4.157   0.017  0.00  0.00    -0.037 C 
ATOM     11  C10 <0> d           0.540   3.635   0.673  0.00  0.00    -0.046 C 
ATOM     12  C11 <0> d           1.060   2.356   0.005  0.00  0.00    -0.000 C 
ATOM     13  H1  <0> d          -5.063   2.312   0.079  0.00  0.00     0.083 H 
ATOM     14  H2  <0> d          -4.237   0.002   0.060  0.00  0.00     0.084 H 
ATOM     15  H3  <0> d          -1.548  -1.535   0.013  0.00  0.00     0.086 H 
ATOM     16  H4  <0> d           0.897  -0.609  -0.013  0.00  0.00     0.111 H 
ATOM     17  H5  <0> d          -3.567   4.238   0.061  0.00  0.00     0.084 H 
ATOM     18  H6  <0> d          -0.533   4.444  -1.014  0.00  0.00     0.040 H 
ATOM     19  H7  <0> d          -1.106   5.024   0.568  0.00  0.00     0.040 H 
ATOM     20  H8  <0> d           1.309   4.405   0.608  0.00  0.00     0.035 H 
ATOM     21  H9  <0> d           0.340   3.426   1.724  0.00  0.00     0.035 H 
ATOM     22  H10 <0> d           1.917   1.974   0.560  0.00  0.00     0.064 H 
ATOM     23  H11 <0> d           1.353   2.574  -1.022  0.00  0.00     0.064 H 
ENDROOT
TORSDOF 0
