REMARK  0 active torsions:
REMARK  status: ('A' for Active; 'I' for Inactive)
ROOT
ATOM      1  C1  <0> d          -0.017   1.404   0.010  0.00  0.00    -0.011 A 
ATOM      2  C2  <0> d           1.156   2.080   0.002  0.00  0.00     0.026 A 
ATOM      3  N1  <0> d           2.325   1.381  -0.013  0.00  0.00    -0.070 N 
ATOM      4  C3  <0> d           2.312   0.015  -0.020  0.00  0.00     0.752 A 
ATOM      5  N2  <0> d           1.151  -0.651  -0.012  0.00  0.00    -0.033 NA
ATOM      6  C4  <0> d           0.002  -0.004   0.002  0.00  0.00     0.220 A 
ATOM      7  O1  <0> d          -1.162  -0.695   0.010  0.00  0.00    -0.170 OA
ATOM      8  N3  <0> d           3.577  -0.390  -0.035  0.00  0.00    -0.052 NA
ATOM      9  C5  <0> d           4.385   0.663  -0.037  0.00  0.00     0.125 A 
ATOM     10  N4  <0> d           3.672   1.764  -0.024  0.00  0.00    -0.146 NA
ATOM     11  H1  <0> d          -0.956   1.938   0.026  0.00  0.00     0.092 H 
ATOM     12  H2  <0> d           1.165   3.160   0.008  0.00  0.00     0.116 H 
ATOM     13  H3  <0> d           5.464   0.620  -0.049  0.00  0.00     0.150 H 
ENDROOT
TORSDOF 0
