REMARK  2 active torsions:
REMARK  status: ('A' for Active; 'I' for Inactive)
REMARK    1  A    between atoms: C1_1  and  C2_2 
REMARK    2  A    between atoms: N1_5  and  C5_7 
ROOT
ATOM      1  C5  <0> d          -0.018   1.468   0.010  0.00  0.00     0.094 C 
ATOM      2  C6  <0> d           0.002  -0.004   0.002  0.00  0.00     0.081 C 
ATOM      3  N3  <0> d           0.018  -1.140  -0.004  0.00  0.00    -0.195 NA
ATOM      4  H6  <0> d          -0.545   1.829  -0.873  0.00  0.00     0.089 H 
ATOM      5  H7  <0> d          -0.528   1.819   0.907  0.00  0.00     0.089 H 
ENDROOT
BRANCH   1   6
ATOM      6  N1  <0> d           1.357   1.975  -0.000  0.00  0.00    -0.268 N 
ATOM      7  C4  <0> d           1.878   2.837  -0.898  0.00  0.00     0.001 A 
ATOM      8  C3  <0> d           3.169   3.056  -0.558  0.00  0.00    -0.041 A 
ATOM      9  H5  <0> d           1.357   3.277  -1.736  0.00  0.00     0.114 H 
ATOM     10  C2  <0> d           3.449   2.294   0.581  0.00  0.00     0.052 A 
ATOM     11  H4  <0> d           3.862   3.702  -1.077  0.00  0.00     0.088 H 
ATOM     12  N2  <0> d           2.364   1.645   0.916  0.00  0.00    -0.177 NA
BRANCH  10  13
ATOM     13  C1  <0> d           4.773   2.231   1.298  0.00  0.00    -0.034 C 
ATOM     14  H1  <0> d           5.378   1.429   0.875  0.00  0.00     0.035 H 
ATOM     15  H2  <0> d           5.295   3.181   1.182  0.00  0.00     0.035 H 
ATOM     16  H3  <0> d           4.604   2.037   2.357  0.00  0.00     0.035 H 
ENDBRANCH  10  13
ENDBRANCH   1   6
TORSDOF 2
