REMARK  1 active torsions:
REMARK  status: ('A' for Active; 'I' for Inactive)
REMARK    1  A    between atoms: C1_1  and  C2_2 
ROOT
ATOM      1  C2  <0> d           0.002  -0.004   0.002  0.00  0.00     0.089 A 
ATOM      2  C3  <0> d           0.005  -0.689  -1.235  0.00  0.00     0.227 A 
ATOM      3  O1  <0> d          -0.010   0.023  -2.387  0.00  0.00    -0.168 OA
ATOM      4  N1  <0> d           0.024  -2.000  -1.289  0.00  0.00    -0.195 NA
ATOM      5  C4  <0> d           0.040  -2.715  -0.146  0.00  0.00     0.231 A 
ATOM      6  C5  <0> d           0.035  -1.998   1.142  0.00  0.00     0.229 A 
ATOM      7  N2  <0> d           0.022  -0.648   1.137  0.00  0.00    -0.224 NA
ATOM      8  N3  <0> d           0.053  -2.890   2.106  0.00  0.00    -0.081 NA
ATOM      9  O2  <0> d           0.068  -4.176   1.511  0.00  0.00    -0.103 OA
ATOM     10  N4  <0> d           0.059  -4.005   0.104  0.00  0.00    -0.081 NA
ENDROOT
BRANCH   1  11
ATOM     11  C1  <0> d          -0.018   1.503   0.010  0.00  0.00    -0.031 C 
ATOM     12  H1  <0> d           1.004   1.880   0.003  0.00  0.00     0.035 H 
ATOM     13  H2  <0> d          -0.545   1.864  -0.873  0.00  0.00     0.035 H 
ATOM     14  H3  <0> d          -0.529   1.854   0.907  0.00  0.00     0.035 H 
ENDBRANCH   1  11
TORSDOF 1
