REMARK  3 active torsions:
REMARK  status: ('A' for Active; 'I' for Inactive)
REMARK    1  A    between atoms: C1_1  and  C2_2 
REMARK    2  A    between atoms: C2_2  and  C3_3 
REMARK    3  A    between atoms: C5_5  and  C7_8 
ROOT
ATOM      1  C3  <0> d          -0.749   3.086   1.275  0.00  0.00    -0.017 A 
ATOM      2  C4  <0> d          -1.677   3.914   0.756  0.00  0.00    -0.053 A 
ATOM      3  C5  <0> d          -1.451   5.330   0.907  0.00  0.00     0.048 A 
ATOM      4  C6  <0> d          -0.298   5.714   1.563  0.00  0.00    -0.028 A 
ATOM      5  S1  <0> d           0.451   4.206   1.967  0.00  0.00    -0.105 SA
ATOM      6  H6  <0> d          -2.552   3.534   0.251  0.00  0.00     0.086 H 
ATOM      7  H7  <0> d           0.052   6.714   1.773  0.00  0.00     0.096 H 
ENDROOT
BRANCH   1   8
ATOM      8  C2  <0> d          -0.729   1.579   1.267  0.00  0.00    -0.038 C 
ATOM      9  H4  <0> d          -1.751   1.202   1.275  0.00  0.00     0.040 H 
ATOM     10  H5  <0> d          -0.202   1.218   2.150  0.00  0.00     0.040 H 
BRANCH   8  11
ATOM     11  C1  <0> d          -0.013   1.086   0.008  0.00  0.00    -0.072 C 
ATOM     12  H1  <0> d           0.002  -0.004   0.002  0.00  0.00     0.028 H 
ATOM     13  H2  <0> d           1.010   1.463   0.000  0.00  0.00     0.028 H 
ATOM     14  H3  <0> d          -0.540   1.447  -0.875  0.00  0.00     0.028 H 
ENDBRANCH   8  11
ENDBRANCH   1   8
BRANCH   3  15
ATOM     15  C7  <0> d          -2.402   6.320   0.383  0.00  0.00     0.209 C 
ATOM     16  O1  <0> d          -3.409   5.951  -0.190  0.00  0.00    -0.644 OA
ATOM     17  O2  <0> d          -2.158   7.637   0.536  0.00  0.00    -0.644 OA
ENDBRANCH   3  15
TORSDOF 3
