REMARK  1 active torsions:
REMARK  status: ('A' for Active; 'I' for Inactive)
REMARK    1  A    between atoms: C5_5  and  O1_8 
ROOT
ATOM      1  C1  <0> d           0.725  -0.078  -2.535  0.00  0.00    -0.065 C 
ATOM      2  C2  <0> d           1.854   0.899  -2.349  0.00  0.00    -0.065 C 
ATOM      3  C3  <0> d           2.305   0.852  -0.875  0.00  0.00    -0.063 C 
ATOM      4  C4  <0> d           1.433   1.624  -0.003  0.00  0.00    -0.041 C 
ATOM      5  C5  <0> d          -0.013   1.086   0.008  0.00  0.00     0.035 C 
ATOM      6  C6  <0> d          -0.719   1.589  -1.222  0.00  0.00    -0.041 C 
ATOM      7  C7  <0> d          -0.658   0.584  -2.389  0.00  0.00    -0.063 C 
ATOM      8  H1  <0> d           0.801  -0.520  -3.529  0.00  0.00     0.033 H 
ATOM      9  H2  <0> d           0.818  -0.870  -1.792  0.00  0.00     0.033 H 
ATOM     10  H3  <0> d           1.512   1.904  -2.596  0.00  0.00     0.033 H 
ATOM     11  H4  <0> d           2.688   0.627  -2.997  0.00  0.00     0.033 H 
ATOM     12  H5  <0> d           3.318   1.249  -0.803  0.00  0.00     0.033 H 
ATOM     13  H6  <0> d           2.309  -0.186  -0.542  0.00  0.00     0.033 H 
ATOM     14  H7  <0> d           1.421   2.659  -0.342  0.00  0.00     0.036 H 
ATOM     15  H8  <0> d           1.829   1.591   1.012  0.00  0.00     0.036 H 
ATOM     16  H9  <0> d           0.002  -0.004   0.002  0.00  0.00     0.082 H 
ATOM     17  H10 <0> d          -1.763   1.780  -0.975  0.00  0.00     0.036 H 
ATOM     18  H11 <0> d          -0.256   2.524  -1.537  0.00  0.00     0.036 H 
ATOM     19  H12 <0> d          -0.898   1.107  -3.315  0.00  0.00     0.033 H 
ATOM     20  H13 <0> d          -1.404  -0.193  -2.221  0.00  0.00     0.033 H 
ENDROOT
BRANCH   5  21
ATOM     21  O1  <0> d          -0.689   1.550   1.178  0.00  0.00    -0.396 OA
ATOM     22  H14 <0> d          -1.607   1.254   1.246  0.00  0.00     0.210 HD
ENDBRANCH   5  21
TORSDOF 1
