REMARK  1 active torsions:
REMARK  status: ('A' for Active; 'I' for Inactive)
REMARK    1  A    between atoms: C2_3  and  N5_11 
ROOT
ATOM      1  C1  <0> d          -0.016   1.311   0.009  0.00  0.00     0.091 A 
ATOM      2  N1  <0> d           1.088   2.035   0.003  0.00  0.00    -0.222 NA
ATOM      3  C2  <0> d           2.288   1.459  -0.012  0.00  0.00     0.153 A 
ATOM      4  C3  <0> d           2.359   0.067  -0.020  0.00  0.00     0.130 A 
ATOM      5  C4  <0> d           1.163  -0.668  -0.013  0.00  0.00     0.185 A 
ATOM      6  N2  <0> d           0.002  -0.004   0.002  0.00  0.00    -0.220 NA
ATOM      7  N3  <0> d           1.500  -1.972  -0.022  0.00  0.00    -0.184 NA
ATOM      8  C5  <0> d           2.804  -2.094  -0.035  0.00  0.00     0.280 A 
ATOM      9  O1  <0> d           3.475  -3.268  -0.048  0.00  0.00    -0.149 OA
ATOM     10  N4  <0> d           3.384  -0.862  -0.034  0.00  0.00    -0.312 N 
ATOM     11  H1  <0> d          -0.970   1.817   0.026  0.00  0.00     0.146 H 
ATOM     12  H4  <0> d           4.335  -0.672  -0.042  0.00  0.00     0.170 HD
ENDROOT
BRANCH   3  13
ATOM     13  N5  <0> d           3.442   2.228  -0.019  0.00  0.00    -0.382 N 
ATOM     14  H2  <0> d           3.381   3.196  -0.014  0.00  0.00     0.157 HD
ATOM     15  H3  <0> d           4.311   1.797  -0.030  0.00  0.00     0.157 HD
ENDBRANCH   3  13
TORSDOF 1
