REMARK  1 active torsions:
REMARK  status: ('A' for Active; 'I' for Inactive)
REMARK    1  A    between atoms: C5_6  and  O1_7 
ROOT
ATOM      1  C1  <0> d          -1.223   2.033   0.019  0.00  0.00    -0.009 A 
ATOM      2  C2  <0> d          -0.016   1.347   0.009  0.00  0.00     0.136 A 
ATOM      3  C3  <0> d           1.168   2.063   0.002  0.00  0.00     0.041 A 
ATOM      4  N1  <0> d           1.161   3.382   0.009  0.00  0.00    -0.243 NA
ATOM      5  C4  <0> d           0.036   4.071   0.023  0.00  0.00     0.158 A 
ATOM      6  C5  <0> d          -1.193   3.422   0.030  0.00  0.00     0.109 A 
ATOM      7 Cl1  <0> d           0.091   5.806   0.032  0.00  0.00    -0.059 Cl
ATOM      8  F1  <0> d           0.002  -0.004   0.002  0.00  0.00    -0.204 F 
ATOM      9  H1  <0> d          -2.163   1.500   0.020  0.00  0.00     0.092 H 
ATOM     10  H2  <0> d           2.110   1.536  -0.009  0.00  0.00     0.119 H 
ENDROOT
BRANCH   6  11
ATOM     11  O1  <0> d          -2.349   4.137   0.044  0.00  0.00    -0.357 OA
ATOM     12  H3  <0> d          -2.691   4.348  -0.835  0.00  0.00     0.217 HD
ENDBRANCH   6  11
TORSDOF 1
