REMARK  2 active torsions:
REMARK  status: ('A' for Active; 'I' for Inactive)
REMARK    1  A    between atoms: C1_1  and  C2_2 
REMARK    2  A    between atoms: C2_2  and  C3_3 
ROOT
ATOM      1  C3  <0> d          -0.017   1.381   0.010  0.00  0.00     0.038 A 
ATOM      2  C4  <0> d           0.002  -0.004   0.002  0.00  0.00    -0.020 A 
ATOM      3  C5  <0> d           1.232  -0.647  -0.013  0.00  0.00     0.129 A 
ATOM      4  N1  <0> d           2.339   0.080  -0.020  0.00  0.00    -0.230 NA
ATOM      5  C6  <0> d           2.281   1.397  -0.012  0.00  0.00     0.088 A 
ATOM      6  N2  <0> d           1.131   2.041   0.002  0.00  0.00    -0.246 NA
ATOM      7 Cl1  <0> d           1.318  -2.381  -0.024  0.00  0.00    -0.062 Cl
ATOM      8  H6  <0> d          -0.918  -0.570   0.008  0.00  0.00     0.091 H 
ATOM      9  H7  <0> d           3.200   1.964  -0.018  0.00  0.00     0.146 H 
ENDROOT
BRANCH   1  10
ATOM     10  C2  <0> d          -1.326   2.127   0.020  0.00  0.00    -0.028 C 
ATOM     11  H4  <0> d          -2.156   1.410   0.110  0.00  0.00     0.041 H 
ATOM     12  H5  <0> d          -1.432   2.694  -0.916  0.00  0.00     0.041 H 
BRANCH  10  13
ATOM     13  C1  <0> d          -1.354   3.092   1.207  0.00  0.00    -0.071 C 
ATOM     14  H1  <0> d          -2.310   3.636   1.214  0.00  0.00     0.028 H 
ATOM     15  H2  <0> d          -0.525   3.808   1.116  0.00  0.00     0.028 H 
ATOM     16  H3  <0> d          -1.248   2.524   2.143  0.00  0.00     0.028 H 
ENDBRANCH  10  13
ENDBRANCH   1  10
TORSDOF 2
