REMARK  0 active torsions:
REMARK  status: ('A' for Active; 'I' for Inactive)
ROOT
ATOM      1  C1  <0> d          -0.837   3.634   0.029  0.00  0.00    -0.075 A 
ATOM      2  C2  <0> d          -1.105   2.287   0.019  0.00  0.00    -0.056 A 
ATOM      3  C3  <0> d          -0.017   1.428   0.010  0.00  0.00     0.085 A 
ATOM      4  S1  <0> d           1.352   2.571   0.003  0.00  0.00    -0.091 SA
ATOM      5  C4  <0> d           0.454   4.054   0.019  0.00  0.00    -0.044 A 
ATOM      6  C5  <0> d           0.002  -0.004   0.002  0.00  0.00     0.107 C 
ATOM      7  N1  <0> d           0.018  -1.140  -0.004  0.00  0.00    -0.191 NA
ATOM      8  H1  <0> d          -1.645   4.352   0.040  0.00  0.00     0.084 H 
ATOM      9  H2  <0> d          -2.118   1.913   0.021  0.00  0.00     0.086 H 
ATOM     10  H3  <0> d           0.831   5.066   0.021  0.00  0.00     0.095 H 
ENDROOT
TORSDOF 0
