REMARK  2 active torsions:
REMARK  status: ('A' for Active; 'I' for Inactive)
REMARK    1  A    between atoms: C1_1  and  C2_2 
REMARK    2  A    between atoms: C3_4  and  N4_8 
ROOT
ATOM      1  C2  <0> d          -0.720   3.026   0.025  0.00  0.00     0.161 A 
ATOM      2  N1  <0> d           0.614   3.028   0.013  0.00  0.00    -0.047 NA
ATOM      3  C3  <0> d           1.058   1.790   0.002  0.00  0.00     0.716 A 
ATOM      4  N2  <0> d          -0.011   0.966   0.007  0.00  0.00    -0.106 N 
ATOM      5  H1  <0> d           0.135  -0.124   0.004  0.00  0.00     0.208 HD
ATOM      6  N3  <0> d          -1.146   1.792   0.017  0.00  0.00    -0.144 NA
ENDROOT
BRANCH   1   7
ATOM      7  C1  <0> d          -1.595   4.253   0.040  0.00  0.00    -0.017 C 
ATOM      8  H2  <0> d          -0.964   5.154   0.045  0.00  0.00     0.038 H 
ATOM      9  H3  <0> d          -2.226   4.243   0.941  0.00  0.00     0.038 H 
ATOM     10  H4  <0> d          -2.235   4.258  -0.855  0.00  0.00     0.038 H 
ENDBRANCH   1   7
BRANCH   3  11
ATOM     11  N4  <0> d           2.386   1.401  -0.014  0.00  0.00    -0.231 N 
ATOM     12  H5  <0> d           2.646   0.332  -0.022  0.00  0.00     0.174 HD
ATOM     13  H6  <0> d           3.181   2.161  -0.018  0.00  0.00     0.174 HD
ENDBRANCH   3  11
TORSDOF 2
