REMARK  1 active torsions:
REMARK  status: ('A' for Active; 'I' for Inactive)
REMARK    1  A    between atoms: C1_1  and  C2_2 
ROOT
ATOM      1  C2  <0> d           2.400  -0.053  -0.022  0.00  0.00    -0.051 A 
ATOM      2  C3  <0> d           1.205  -0.707  -0.014  0.00  0.00    -0.076 A 
ATOM      3  C4  <0> d           0.002  -0.004   0.002  0.00  0.00    -0.082 A 
ATOM      4  C5  <0> d          -0.016   1.358   0.009  0.00  0.00    -0.071 A 
ATOM      5  C6  <0> d           1.195   2.066   0.002  0.00  0.00    -0.008 A 
ATOM      6  C7  <0> d           2.420   1.348  -0.014  0.00  0.00    -0.017 A 
ATOM      7  C8  <0> d           3.621   2.082  -0.022  0.00  0.00    -0.055 A 
ATOM      8  C9  <0> d           3.555   3.442  -0.014  0.00  0.00     0.003 A 
ATOM      9  N1  <0> d           2.397   4.088   0.000  0.00  0.00    -0.272 NA
ATOM     10  C10 <0> d           1.239   3.469   0.008  0.00  0.00     0.013 A 
ATOM     11  H4  <0> d           1.190  -1.787  -0.019  0.00  0.00     0.084 H 
ATOM     12  H5  <0> d          -0.931  -0.548   0.008  0.00  0.00     0.083 H 
ATOM     13  H6  <0> d          -0.957   1.889   0.017  0.00  0.00     0.084 H 
ATOM     14  H7  <0> d           4.575   1.577  -0.034  0.00  0.00     0.087 H 
ATOM     15  H8  <0> d           4.473   4.012  -0.021  0.00  0.00     0.114 H 
ATOM     16  H9  <0> d           0.322   4.039   0.020  0.00  0.00     0.116 H 
ENDROOT
BRANCH   1  17
ATOM     17  C1  <0> d           3.691  -0.831  -0.039  0.00  0.00    -0.050 C 
ATOM     18  H1  <0> d           3.992  -1.012  -1.071  0.00  0.00     0.033 H 
ATOM     19  H2  <0> d           4.467  -0.259   0.471  0.00  0.00     0.033 H 
ATOM     20  H3  <0> d           3.548  -1.784   0.470  0.00  0.00     0.033 H 
ENDBRANCH   1  17
TORSDOF 1
