REMARK  2 active torsions:
REMARK  status: ('A' for Active; 'I' for Inactive)
REMARK    1  A    between atoms: C1_1  and  C2_2 
REMARK    2  A    between atoms: N1_4  and  C5_7 
ROOT
ATOM      1  C2  <0> d          -2.640  -2.369   0.013  0.00  0.00     0.048 A 
ATOM      2  C3  <0> d          -1.321  -2.097  -0.003  0.00  0.00     0.010 A 
ATOM      3  N1  <0> d          -1.197  -0.732   0.009  0.00  0.00    -0.313 N 
ATOM      4  C4  <0> d          -2.454  -0.217   0.023  0.00  0.00     0.070 A 
ATOM      5  N2  <0> d          -3.307  -1.205   0.025  0.00  0.00    -0.247 NA
ATOM      6  H4  <0> d          -0.516  -2.817  -0.018  0.00  0.00     0.115 H 
ATOM      7  H5  <0> d          -2.705   0.833   0.031  0.00  0.00     0.144 H 
ENDROOT
BRANCH   3   8
ATOM      8  C5  <0> d           0.002  -0.004   0.002  0.00  0.00     0.057 A 
ATOM      9  C9  <0> d           1.224  -0.661  -0.013  0.00  0.00     0.028 A 
ATOM     10  N3  <0> d           2.354   0.019  -0.020  0.00  0.00    -0.271 NA
ATOM     11  H9  <0> d           1.251  -1.741  -0.019  0.00  0.00     0.118 H 
ATOM     12  C8  <0> d           2.370   1.338  -0.013  0.00  0.00     0.002 A 
ATOM     13  C7  <0> d           1.193   2.063   0.002  0.00  0.00    -0.064 A 
ATOM     14  H8  <0> d           3.316   1.858  -0.020  0.00  0.00     0.114 H 
ATOM     15  C6  <0> d          -0.017   1.388   0.010  0.00  0.00    -0.054 A 
ATOM     16  H7  <0> d           1.216   3.142   0.007  0.00  0.00     0.085 H 
ATOM     17  H6  <0> d          -0.952   1.929   0.017  0.00  0.00     0.087 H 
ENDBRANCH   3   8
BRANCH   1  18
ATOM     18  C1  <0> d          -3.260  -3.742   0.010  0.00  0.00    -0.034 C 
ATOM     19  H1  <0> d          -2.466  -4.503  -0.001  0.00  0.00     0.035 H 
ATOM     20  H2  <0> d          -3.891  -3.858  -0.884  0.00  0.00     0.035 H 
ATOM     21  H3  <0> d          -3.876  -3.868   0.912  0.00  0.00     0.035 H 
ENDBRANCH   1  18
TORSDOF 2
