REMARK  5 active torsions:
REMARK  status: ('A' for Active; 'I' for Inactive)
REMARK    1  A    between atoms: C1_1  and  C2_2 
REMARK       I    between atoms: C2_2  and  N1_4 
REMARK    2  A    between atoms: N1_4  and  C3_5 
REMARK    3  A    between atoms: N1_4  and  C4_6 
REMARK    4  A    between atoms: C4_6  and  C5_7 
REMARK    5  A    between atoms: C5_7  and  C6_8 
ROOT
ATOM      1  C2  <0> d          -4.367   1.989  -1.173  0.00  0.00     0.215 C 
ATOM      2  O1  <0> d          -5.464   2.506  -1.192  0.00  0.00    -0.274 OA
ATOM      3  N1  <0> d          -3.799   1.656   0.003  0.00  0.00    -0.356 N 
ENDROOT
BRANCH   3   4
ATOM      4  C3  <0> d          -4.454   2.021   1.262  0.00  0.00    -0.016 C 
ATOM      5  H4  <0> d          -4.178   3.039   1.534  0.00  0.00     0.056 H 
ATOM      6  H5  <0> d          -5.535   1.958   1.140  0.00  0.00     0.056 H 
ATOM      7  H6  <0> d          -4.137   1.336   2.048  0.00  0.00     0.056 H 
ENDBRANCH   3   4
BRANCH   3   8
ATOM      8  C4  <0> d          -2.526   0.930   0.023  0.00  0.00     0.006 C 
ATOM      9  H7  <0> d          -2.452   0.303  -0.865  0.00  0.00     0.065 H 
ATOM     10  H8  <0> d          -2.479   0.305   0.915  0.00  0.00     0.065 H 
BRANCH   8  11
ATOM     11  C5  <0> d          -1.369   1.931   0.039  0.00  0.00     0.030 C 
ATOM     12  H9  <0> d          -1.443   2.558   0.927  0.00  0.00     0.051 H 
ATOM     13  H10 <0> d          -1.417   2.556  -0.852  0.00  0.00     0.051 H 
BRANCH  11  14
ATOM     14  C6  <0> d          -0.060   1.184   0.060  0.00  0.00     0.174 C 
ATOM     15  O2  <0> d          -0.054  -0.024   0.061  0.00  0.00    -0.648 OA
ATOM     16  O3  <0> d           1.099   1.861   0.071  0.00  0.00    -0.648 OA
ENDBRANCH  11  14
ENDBRANCH   8  11
ENDBRANCH   3   8
BRANCH   1  17
ATOM     17  C1  <0> d          -3.639   1.718  -2.464  0.00  0.00    -0.003 C 
ATOM     18  H1  <0> d          -3.963   0.760  -2.870  0.00  0.00     0.040 H 
ATOM     19  H2  <0> d          -3.861   2.510  -3.180  0.00  0.00     0.040 H 
ATOM     20  H3  <0> d          -2.565   1.689  -2.277  0.00  0.00     0.040 H 
ENDBRANCH   1  17
TORSDOF 5
