REMARK  2 active torsions:
REMARK  status: ('A' for Active; 'I' for Inactive)
REMARK    1  A    between atoms: C1_1  and  C2_2 
REMARK    2  A    between atoms: C7_7  and  O1_8 
ROOT
ATOM      1  C2  <0> d           0.002  -0.004   0.002  0.00  0.00    -0.027 A 
ATOM      2  C3  <0> d          -0.006  -0.682  -1.198  0.00  0.00    -0.046 A 
ATOM      3  C4  <0> d           0.019  -2.070  -1.208  0.00  0.00     0.062 A 
ATOM      4  C5  <0> d           0.039  -2.782   0.003  0.00  0.00     0.087 A 
ATOM      5  C6  <0> d           0.041  -2.083   1.213  0.00  0.00    -0.021 A 
ATOM      6  C7  <0> d           0.023  -0.702   1.206  0.00  0.00     0.073 A 
ATOM      7  N1  <0> d           0.054  -4.102  -0.314  0.00  0.00    -0.242 NA
ATOM      8  C8  <0> d           0.043  -4.242  -1.607  0.00  0.00     0.065 A 
ATOM      9  N2  <0> d           0.022  -3.023  -2.209  0.00  0.00    -0.349 N 
ATOM     10  H1  <0> d           0.010  -2.849  -3.194  0.00  0.00     0.167 HD
ATOM     11  H5  <0> d          -0.026  -0.135  -2.128  0.00  0.00     0.088 H 
ATOM     12  H6  <0> d           0.057  -2.620   2.150  0.00  0.00     0.091 H 
ATOM     13  H8  <0> d           0.051  -5.189  -2.127  0.00  0.00     0.143 H 
ENDROOT
BRANCH   1  14
ATOM     14  C1  <0> d          -0.018   1.503   0.010  0.00  0.00    -0.049 C 
ATOM     15  H2  <0> d           1.004   1.880   0.003  0.00  0.00     0.033 H 
ATOM     16  H3  <0> d          -0.545   1.864  -0.873  0.00  0.00     0.033 H 
ATOM     17  H4  <0> d          -0.529   1.854   0.907  0.00  0.00     0.033 H 
ENDBRANCH   1  14
BRANCH   6  18
ATOM     18  O1  <0> d           0.025  -0.020   2.382  0.00  0.00    -0.360 OA
ATOM     19  H7  <0> d          -0.858   0.165   2.731  0.00  0.00     0.217 HD
ENDBRANCH   6  18
TORSDOF 2
