REMARK  2 active torsions:
REMARK  status: ('A' for Active; 'I' for Inactive)
REMARK    1  A    between atoms: C1_1  and  C2_2 
REMARK    2  A    between atoms: C8_11  and  N3_12 
ROOT
ATOM      1  C2  <0> d           0.002  -0.004   0.002  0.00  0.00    -0.033 A 
ATOM      2  C3  <0> d           0.005  -0.677  -1.220  0.00  0.00    -0.074 A 
ATOM      3  C4  <0> d           0.023  -2.029  -1.305  0.00  0.00    -0.069 A 
ATOM      4  C5  <0> d           0.040  -2.815  -0.131  0.00  0.00     0.014 A 
ATOM      5  C6  <0> d           0.059  -4.171   0.135  0.00  0.00     0.008 A 
ATOM      6  N1  <0> d           0.068  -4.329   1.467  0.00  0.00    -0.288 N 
ATOM      7  H1  <0> d           0.082  -5.183   1.927  0.00  0.00     0.188 HD
ATOM      8  N2  <0> d           0.054  -3.078   2.096  0.00  0.00    -0.172 NA
ATOM      9  C7  <0> d           0.037  -2.136   1.173  0.00  0.00     0.115 A 
ATOM     10  C8  <0> d           0.022  -0.676   1.190  0.00  0.00     0.063 A 
ATOM     11  H5  <0> d          -0.007  -0.099  -2.132  0.00  0.00     0.084 H 
ATOM     12  H6  <0> d           0.025  -2.508  -2.273  0.00  0.00     0.085 H 
ATOM     13  H7  <0> d           0.066  -4.963  -0.599  0.00  0.00     0.115 H 
ENDROOT
BRANCH   1  14
ATOM     14  C1  <0> d          -0.018   1.503   0.010  0.00  0.00    -0.049 C 
ATOM     15  H2  <0> d           1.004   1.880   0.003  0.00  0.00     0.033 H 
ATOM     16  H3  <0> d          -0.545   1.864  -0.873  0.00  0.00     0.033 H 
ATOM     17  H4  <0> d          -0.529   1.854   0.907  0.00  0.00     0.033 H 
ENDBRANCH   1  14
BRANCH  10  18
ATOM     18  N3  <0> d           0.024   0.020   2.399  0.00  0.00    -0.397 N 
ATOM     19  H8  <0> d           0.011   0.990   2.400  0.00  0.00     0.156 HD
ATOM     20  H9  <0> d           0.039  -0.466   3.238  0.00  0.00     0.156 HD
ENDBRANCH  10  18
TORSDOF 2
