REMARK  5 active torsions:
REMARK  status: ('A' for Active; 'I' for Inactive)
REMARK    1  A    between atoms: C1_1  and  C2_2 
REMARK    2  A    between atoms: C2_2  and  C3_4 
REMARK    3  A    between atoms: C2_2  and  C6_8 
REMARK    4  A    between atoms: C3_4  and  C4_5 
REMARK    5  A    between atoms: C6_8  and  C7_10 
ROOT
ATOM      1  C4  <0> d          -0.018   1.468   0.010  0.00  0.00     0.015 C 
ATOM      2  C5  <0> d           0.002  -0.004   0.002  0.00  0.00     0.059 C 
ATOM      3  N1  <0> d           0.018  -1.140  -0.004  0.00  0.00    -0.197 NA
ATOM      4  H7  <0> d          -0.550   1.832  -0.881  0.00  0.00     0.054 H 
ATOM      5  H8  <0> d           1.014   1.849   0.002  0.00  0.00     0.054 H 
ENDROOT
BRANCH   1   6
ATOM      6  C3  <0> d          -0.734   1.961   1.269  0.00  0.00    -0.044 C 
ATOM      7  H5  <0> d          -0.202   1.597   2.160  0.00  0.00     0.035 H 
ATOM      8  H6  <0> d          -1.766   1.580   1.277  0.00  0.00     0.035 H 
BRANCH   6   9
ATOM      9  C2  <0> d          -0.755   3.491   1.277  0.00  0.00     0.001 C 
ATOM     10  H1  <0> d          -1.218   3.864   0.352  0.00  0.00     0.051 H 
BRANCH   9  11
ATOM     11  C1  <0> d           0.676   4.020   1.392  0.00  0.00    -0.066 C 
ATOM     12  H2  <0> d           0.661   5.120   1.398  0.00  0.00     0.028 H 
ATOM     13  H3  <0> d           1.268   3.666   0.535  0.00  0.00     0.028 H 
ATOM     14  H4  <0> d           1.129   3.654   2.326  0.00  0.00     0.028 H 
ENDBRANCH   9  11
BRANCH   9  15
ATOM     15  C6  <0> d          -1.565   3.976   2.452  0.00  0.00     0.126 C 
ATOM     16  O1  <0> d          -1.618   3.317   3.462  0.00  0.00    -0.298 OA
BRANCH  15  17
ATOM     17  C7  <0> d          -2.310   5.283   2.365  0.00  0.00    -0.021 C 
ATOM     18  H9  <0> d          -2.839   5.467   3.311  0.00  0.00     0.037 H 
ATOM     19  H10 <0> d          -3.037   5.237   1.541  0.00  0.00     0.037 H 
ATOM     20  H11 <0> d          -1.597   6.100   2.179  0.00  0.00     0.037 H 
ENDBRANCH  15  17
ENDBRANCH   9  15
ENDBRANCH   6   9
ENDBRANCH   1   6
TORSDOF 5
