REMARK  2 active torsions:
REMARK  status: ('A' for Active; 'I' for Inactive)
REMARK    1  A    between atoms: C1_1  and  N1_2 
REMARK       I    between atoms: N1_2  and  C2_3 
REMARK    2  A    between atoms: C2_3  and  C3_5 
ROOT
ATOM      1  C3  <0> d          -0.789   1.611   1.242  0.00  0.00     0.024 C 
ATOM      2  C4  <0> d          -0.013   1.086   0.008  0.00  0.00    -0.054 C 
ATOM      3  C5  <0> d          -0.809   1.622  -1.200  0.00  0.00    -0.064 C 
ATOM      4  C6  <0> d          -2.243   1.875  -0.703  0.00  0.00    -0.064 C 
ATOM      5  C7  <0> d          -2.268   1.485   0.789  0.00  0.00    -0.054 C 
ATOM      6  H5  <0> d          -0.534   2.651   1.444  0.00  0.00     0.054 H 
ATOM      7  H6  <0> d           0.002  -0.004   0.002  0.00  0.00     0.034 H 
ATOM      8  H7  <0> d           1.003   1.480   0.000  0.00  0.00     0.034 H 
ATOM      9  H8  <0> d          -0.367   2.552  -1.555  0.00  0.00     0.033 H 
ATOM     10  H9  <0> d          -0.816   0.882  -2.000  0.00  0.00     0.033 H 
ATOM     11  H10 <0> d          -2.497   2.929  -0.818  0.00  0.00     0.033 H 
ATOM     12  H11 <0> d          -2.946   1.258  -1.263  0.00  0.00     0.033 H 
ATOM     13  H12 <0> d          -2.899   2.172   1.353  0.00  0.00     0.034 H 
ATOM     14  H13 <0> d          -2.620   0.460   0.909  0.00  0.00     0.034 H 
ENDROOT
BRANCH   1  15
ATOM     15  C2  <0> d          -0.520   0.748   2.448  0.00  0.00     0.221 C 
ATOM     16  N1  <0> d          -1.105   1.039   3.627  0.00  0.00    -0.365 N 
ATOM     17  H4  <0> d          -1.698   1.803   3.700  0.00  0.00     0.161 HD
ATOM     18  O1  <0> d           0.221  -0.207   2.357  0.00  0.00    -0.273 OA
BRANCH  16  19
ATOM     19  C1  <0> d          -0.844   0.201   4.800  0.00  0.00    -0.018 C 
ATOM     20  H1  <0> d           0.223   0.212   5.025  0.00  0.00     0.056 H 
ATOM     21  H2  <0> d          -1.399   0.588   5.654  0.00  0.00     0.056 H 
ATOM     22  H3  <0> d          -1.161  -0.822   4.594  0.00  0.00     0.056 H 
ENDBRANCH  16  19
ENDBRANCH   1  15
TORSDOF 2
