REMARK  4 active torsions:
REMARK  status: ('A' for Active; 'I' for Inactive)
REMARK    1  A    between atoms: C1_1  and  C2_2 
REMARK    2  A    between atoms: C5_6  and  C8_12 
REMARK    3  A    between atoms: C6_8  and  O1_11 
REMARK    4  A    between atoms: C8_12  and  C10_14 
ROOT
ATOM      1  C2  <0> d          -0.729   1.579   1.267  0.00  0.00    -0.055 C 
ATOM      2  H1  <0> d          -1.776   1.277   1.232  0.00  0.00     0.039 H 
ATOM      3  C3  <0> d          -0.641   3.105   1.339  0.00  0.00    -0.061 C 
ATOM      4  C4  <0> d           0.828   3.530   1.388  0.00  0.00    -0.056 C 
ATOM      5  C5  <0> d           1.493   2.922   2.625  0.00  0.00    -0.008 C 
ATOM      6  H2  <0> d           0.983   3.273   3.522  0.00  0.00     0.050 H 
ATOM      7  C6  <0> d           1.405   1.396   2.553  0.00  0.00     0.043 C 
ATOM      8  H3  <0> d           1.879   0.963   3.434  0.00  0.00     0.084 H 
ATOM      9  C7  <0> d          -0.064   0.971   2.503  0.00  0.00    -0.037 C 
ATOM     10  H7  <0> d          -1.115   3.538   0.458  0.00  0.00     0.033 H 
ATOM     11  H8  <0> d          -1.151   3.457   2.235  0.00  0.00     0.033 H 
ATOM     12  H9  <0> d           0.891   4.617   1.439  0.00  0.00     0.034 H 
ATOM     13  H10 <0> d           1.338   3.178   0.491  0.00  0.00     0.034 H 
ATOM     14  H11 <0> d          -0.574   1.323   3.400  0.00  0.00     0.037 H 
ATOM     15  H12 <0> d          -0.126  -0.116   2.452  0.00  0.00     0.037 H 
ENDROOT
BRANCH   5  16
ATOM     16  C8  <0> d           2.940   3.340   2.674  0.00  0.00    -0.086 C 
ATOM     17  C9  <0> d           3.391   4.021   3.698  0.00  0.00    -0.119 C 
ATOM     18  H14 <0> d           4.428   4.320   3.733  0.00  0.00     0.067 H 
ATOM     19  H15 <0> d           2.726   4.283   4.507  0.00  0.00     0.067 H 
BRANCH  16  20
ATOM     20  C10 <0> d           3.869   2.974   1.544  0.00  0.00    -0.055 C 
ATOM     21  H16 <0> d           3.319   2.413   0.789  0.00  0.00     0.033 H 
ATOM     22  H17 <0> d           4.274   3.883   1.098  0.00  0.00     0.033 H 
ATOM     23  H18 <0> d           4.685   2.363   1.928  0.00  0.00     0.033 H 
ENDBRANCH  16  20
ENDBRANCH   5  16
BRANCH   7  24
ATOM     24  O1  <0> d           2.074   0.935   1.377  0.00  0.00    -0.395 OA
ATOM     25  H13 <0> d           2.058  -0.026   1.267  0.00  0.00     0.210 HD
ENDBRANCH   7  24
BRANCH   1  26
ATOM     26  C1  <0> d          -0.013   1.086   0.008  0.00  0.00    -0.073 C 
ATOM     27  H4  <0> d           0.100   0.003   0.055  0.00  0.00     0.028 H 
ATOM     28  H5  <0> d           0.971   1.551  -0.056  0.00  0.00     0.028 H 
ATOM     29  H6  <0> d          -0.599   1.352  -0.872  0.00  0.00     0.028 H 
ENDBRANCH   1  26
TORSDOF 4
