REMARK  3 active torsions:
REMARK  status: ('A' for Active; 'I' for Inactive)
REMARK    1  A    between atoms: C1_1  and  O1_2 
REMARK    2  A    between atoms: O1_2  and  C2_3 
REMARK    3  A    between atoms: C2_3  and  C3_5 
ROOT
ATOM      1  C3  <0> d          -1.248  -2.097   0.003  0.00  0.00     0.098 A 
ATOM      2  C4  <0> d          -2.349  -2.942   0.009  0.00  0.00     0.025 A 
ATOM      3  N1  <0> d          -2.124  -4.231  -0.001  0.00  0.00    -0.265 NA
ATOM      4  C5  <0> d          -0.903  -4.723  -0.016  0.00  0.00     0.040 A 
ATOM      5  S1  <0> d           0.080  -3.292  -0.024  0.00  0.00    -0.075 SA
ATOM      6  H4  <0> d          -3.355  -2.550   0.021  0.00  0.00     0.117 H 
ATOM      7  H5  <0> d          -0.592  -5.757  -0.025  0.00  0.00     0.126 H 
ENDROOT
BRANCH   1   8
ATOM      8  C2  <0> d          -1.191  -0.633   0.010  0.00  0.00     0.301 C 
ATOM      9  O2  <0> d          -2.220   0.016   0.023  0.00  0.00    -0.259 OA
BRANCH   8  10
ATOM     10  O1  <0> d           0.002  -0.004   0.002  0.00  0.00    -0.322 OA
BRANCH  10  11
ATOM     11  C1  <0> d          -0.018   1.448   0.010  0.00  0.00     0.013 C 
ATOM     12  H1  <0> d           1.005   1.825   0.002  0.00  0.00     0.067 H 
ATOM     13  H2  <0> d          -0.545   1.809  -0.873  0.00  0.00     0.067 H 
ATOM     14  H3  <0> d          -0.528   1.799   0.907  0.00  0.00     0.067 H 
ENDBRANCH  10  11
ENDBRANCH   8  10
ENDBRANCH   1   8
TORSDOF 3
