REMARK  1 active torsions:
REMARK  status: ('A' for Active; 'I' for Inactive)
REMARK    1  A    between atoms: C2_2  and  N4_10 
ROOT
ATOM      1  C1  <0> d          -0.017   1.384   0.010  0.00  0.00    -0.027 A 
ATOM      2  C2  <0> d           1.200   2.057   0.002  0.00  0.00     0.045 A 
ATOM      3  C3  <0> d           2.384   1.324  -0.014  0.00  0.00     0.030 A 
ATOM      4  N1  <0> d           2.373   0.009  -0.021  0.00  0.00    -0.237 NA
ATOM      5  C4  <0> d           1.235  -0.680  -0.013  0.00  0.00     0.177 A 
ATOM      6  C5  <0> d           0.002  -0.004   0.002  0.00  0.00     0.083 A 
ATOM      7  N2  <0> d          -0.973  -0.981   0.006  0.00  0.00    -0.348 N 
ATOM      8  C6  <0> d          -0.337  -2.184  -0.006  0.00  0.00     0.067 A 
ATOM      9  N3  <0> d           0.952  -2.008  -0.018  0.00  0.00    -0.222 NA
ATOM     10  H1  <0> d          -0.951   1.926   0.026  0.00  0.00     0.090 H 
ATOM     11  H2  <0> d           3.329   1.846  -0.020  0.00  0.00     0.118 H 
ATOM     12  H3  <0> d          -0.831  -3.144  -0.007  0.00  0.00     0.143 H 
ATOM     13  H6  <0> d          -1.932  -0.837   0.016  0.00  0.00     0.167 HD
ENDROOT
BRANCH   2  14
ATOM     14  N4  <0> d           1.234   3.455   0.008  0.00  0.00    -0.398 N 
ATOM     15  H4  <0> d           0.406   3.960   0.019  0.00  0.00     0.156 HD
ATOM     16  H5  <0> d           2.086   3.919   0.003  0.00  0.00     0.156 HD
ENDBRANCH   2  14
TORSDOF 1
