REMARK  7 active torsions:
REMARK  status: ('A' for Active; 'I' for Inactive)
REMARK    1  A    between atoms: C1_1  and  C2_2 
REMARK    2  A    between atoms: C2_2  and  C3_3 
REMARK    3  A    between atoms: C2_2  and  C4_4 
REMARK    4  A    between atoms: C2_2  and  O3_10 
REMARK    5  A    between atoms: C5_5  and  C6_6 
REMARK    6  A    between atoms: C6_6  and  O2_8 
REMARK    7  A    between atoms: O2_8  and  C7_9 
ROOT
ATOM      1  C2  <0> d           1.286   1.562  -0.002  0.00  0.00     0.114 C 
ENDROOT
BRANCH   1   2
ATOM      2  C1  <0> d           2.040   1.127  -1.261  0.00  0.00    -0.038 C 
ATOM      3  H1  <0> d           1.486   1.446  -2.144  0.00  0.00     0.033 H 
ATOM      4  H2  <0> d           3.029   1.584  -1.268  0.00  0.00     0.033 H 
ATOM      5  H3  <0> d           2.140   0.042  -1.268  0.00  0.00     0.033 H 
ENDBRANCH   1   2
BRANCH   1   6
ATOM      6  C3  <0> d           1.145   3.085   0.008  0.00  0.00    -0.038 C 
ATOM      7  H4  <0> d           0.608   3.395   0.904  0.00  0.00     0.033 H 
ATOM      8  H5  <0> d           2.135   3.542   0.001  0.00  0.00     0.033 H 
ATOM      9  H6  <0> d           0.591   3.404  -0.875  0.00  0.00     0.033 H 
ENDBRANCH   1   6
BRANCH   1  10
ATOM     10  C4  <0> d           2.034   1.131   1.191  0.00  0.00    -0.058 C 
ATOM     11  C5  <0> d           2.631   0.787   2.142  0.00  0.00     0.005 C 
BRANCH  11  12
ATOM     12  C6  <0> d           3.358   0.368   3.302  0.00  0.00     0.338 C 
ATOM     13  O1  <0> d           4.491   0.767   3.486  0.00  0.00    -0.249 OA
BRANCH  12  14
ATOM     14  O2  <0> d           2.786  -0.469   4.190  0.00  0.00    -0.316 OA
BRANCH  14  15
ATOM     15  C7  <0> d           3.582  -0.852   5.343  0.00  0.00     0.014 C 
ATOM     16  H7  <0> d           3.005  -1.525   5.976  0.00  0.00     0.067 H 
ATOM     17  H8  <0> d           4.488  -1.356   5.007  0.00  0.00     0.067 H 
ATOM     18  H9  <0> d           3.851   0.039   5.910  0.00  0.00     0.067 H 
ENDBRANCH  14  15
ENDBRANCH  12  14
ENDBRANCH  11  12
ENDBRANCH   1  10
BRANCH   1  19
ATOM     19  O3  <0> d          -0.011   0.963   0.007  0.00  0.00    -0.378 OA
ATOM     20  H10 <0> d           0.002  -0.004   0.002  0.00  0.00     0.211 HD
ENDBRANCH   1  19
TORSDOF 7
