REMARK  3 active torsions:
REMARK  status: ('A' for Active; 'I' for Inactive)
REMARK    1  A    between atoms: C1_1  and  C2_2 
REMARK       I    between atoms: C2_2  and  N1_4 
REMARK    2  A    between atoms: N1_4  and  C3_5 
REMARK    3  A    between atoms: C3_5  and  S1_6 
ROOT
ATOM      1  C2  <0> d          -0.014   1.209   0.009  0.00  0.00     0.214 C 
ATOM      2  O1  <0> d           0.002  -0.004   0.002  0.00  0.00    -0.274 OA
ATOM      3  N1  <0> d           1.143   1.898   0.001  0.00  0.00    -0.345 N 
ATOM      4  H4  <0> d           1.130   2.868   0.007  0.00  0.00     0.163 HD
ENDROOT
BRANCH   3   5
ATOM      5  C3  <0> d           2.422   1.183  -0.015  0.00  0.00     0.104 C 
ATOM      6  H5  <0> d           3.156   1.737   0.571  0.00  0.00     0.092 H 
ATOM      7  H6  <0> d           2.288   0.191   0.416  0.00  0.00     0.092 H 
BRANCH   5   8
ATOM      8  S1  <0> d           3.006   1.027  -1.725  0.00  0.00     0.119 S 
ATOM      9  O2  <0> d           2.152   0.159  -2.457  0.00  0.00    -0.594 OA
ATOM     10  O3  <0> d           3.355   2.304  -2.241  0.00  0.00    -0.594 OA
ATOM     11  O4  <0> d           4.326   0.277  -1.621  0.00  0.00    -0.594 OA
ENDBRANCH   5   8
ENDBRANCH   3   5
BRANCH   1  12
ATOM     12  C1  <0> d          -1.330   1.944   0.019  0.00  0.00    -0.003 C 
ATOM     13  H1  <0> d          -2.148   1.225   0.019  0.00  0.00     0.040 H 
ATOM     14  H2  <0> d          -1.392   2.565   0.913  0.00  0.00     0.040 H 
ATOM     15  H3  <0> d          -1.400   2.575  -0.867  0.00  0.00     0.040 H 
ENDBRANCH   1  12
TORSDOF 3
