REMARK  2 active torsions:
REMARK  status: ('A' for Active; 'I' for Inactive)
REMARK    1  A    between atoms: C3_3  and  C10_11 
REMARK    2  A    between atoms: C10_11  and  O1_12 
ROOT
ATOM      1  C1  <0> d          -0.017   1.398   0.010  0.00  0.00    -0.072 A 
ATOM      2  C2  <0> d           1.160   2.084   0.002  0.00  0.00    -0.074 A 
ATOM      3  C3  <0> d           2.382   1.415  -0.013  0.00  0.00    -0.034 A 
ATOM      4  C4  <0> d           2.438   0.054  -0.021  0.00  0.00    -0.063 A 
ATOM      5  C5  <0> d           1.246  -0.687  -0.013  0.00  0.00    -0.008 A 
ATOM      6  C6  <0> d           0.002  -0.004   0.002  0.00  0.00    -0.023 A 
ATOM      7  C7  <0> d          -1.178  -0.771   0.009  0.00  0.00    -0.055 A 
ATOM      8  C8  <0> d          -1.075  -2.128  -0.000  0.00  0.00     0.003 A 
ATOM      9  N1  <0> d           0.101  -2.741  -0.014  0.00  0.00    -0.272 NA
ATOM     10  C9  <0> d           1.241  -2.092  -0.021  0.00  0.00     0.013 A 
ATOM     11  H1  <0> d          -0.957   1.929   0.026  0.00  0.00     0.084 H 
ATOM     12  H2  <0> d           1.145   3.164   0.008  0.00  0.00     0.084 H 
ATOM     13  H3  <0> d           3.393  -0.451  -0.033  0.00  0.00     0.085 H 
ATOM     14  H4  <0> d          -2.146  -0.292   0.021  0.00  0.00     0.087 H 
ATOM     15  H5  <0> d          -1.976  -2.723   0.005  0.00  0.00     0.114 H 
ATOM     16  H6  <0> d           2.174  -2.636  -0.033  0.00  0.00     0.116 H 
ENDROOT
BRANCH   3  17
ATOM     17  C10 <0> d           3.662   2.209  -0.021  0.00  0.00     0.040 C 
ATOM     18  H7  <0> d           4.435   1.647  -0.546  0.00  0.00     0.081 H 
ATOM     19  H8  <0> d           3.497   3.160  -0.529  0.00  0.00     0.081 H 
BRANCH  17  20
ATOM     20  O1  <0> d           4.080   2.454   1.323  0.00  0.00    -0.396 OA
ATOM     21  H9  <0> d           4.900   2.962   1.394  0.00  0.00     0.209 HD
ENDBRANCH  17  20
ENDBRANCH   3  17
TORSDOF 2
