REMARK  3 active torsions:
REMARK  status: ('A' for Active; 'I' for Inactive)
REMARK    1  A    between atoms: C2_2  and  C3_3 
REMARK    2  A    between atoms: C3_3  and  C4_4 
REMARK    3  A    between atoms: C7_7  and  C8_10 
ROOT
ATOM      1  C4  <0> d          -1.318  -1.726  -1.159  0.00  0.00     0.013 A 
ATOM      2  C5  <0> d          -1.706  -1.413  -2.420  0.00  0.00    -0.059 A 
ATOM      3  C6  <0> d          -1.586  -2.563  -3.203  0.00  0.00    -0.049 A 
ATOM      4  C7  <0> d          -1.117  -3.567  -2.376  0.00  0.00     0.110 A 
ATOM      5  N1  <0> d          -0.954  -3.024  -1.120  0.00  0.00    -0.354 N 
ATOM      6  H1  <0> d          -0.633  -3.498  -0.337  0.00  0.00     0.166 HD
ATOM      7  H7  <0> d          -2.048  -0.446  -2.758  0.00  0.00     0.086 H 
ATOM      8  H8  <0> d          -1.815  -2.651  -4.255  0.00  0.00     0.087 H 
ENDROOT
BRANCH   1   9
ATOM      9  C3  <0> d          -1.293  -0.775   0.010  0.00  0.00    -0.012 C 
ATOM     10  H5  <0> d          -1.374  -1.339   0.939  0.00  0.00     0.048 H 
ATOM     11  H6  <0> d          -2.130  -0.081  -0.068  0.00  0.00     0.048 H 
BRANCH   9  12
ATOM     12  C2  <0> d           0.002  -0.004   0.002  0.00  0.00    -0.106 C 
ATOM     13  C1  <0> d          -0.016   1.306   0.009  0.00  0.00    -0.124 C 
ATOM     14  H2  <0> d           0.912   1.859   0.003  0.00  0.00     0.066 H 
ATOM     15  H3  <0> d          -0.958   1.833   0.017  0.00  0.00     0.066 H 
ATOM     16  H4  <0> d           0.945  -0.531  -0.010  0.00  0.00     0.076 H 
ENDBRANCH   9  12
ENDBRANCH   1   9
BRANCH   4  17
ATOM     17  C8  <0> d          -0.839  -4.948  -2.764  0.00  0.00     0.226 C 
ATOM     18  O1  <0> d          -0.425  -5.746  -1.933  0.00  0.00    -0.643 OA
ATOM     19  O2  <0> d          -1.021  -5.307  -3.921  0.00  0.00    -0.643 OA
ENDBRANCH   4  17
TORSDOF 3
