REMARK  5 active torsions:
REMARK  status: ('A' for Active; 'I' for Inactive)
REMARK    1  A    between atoms: C1_1  and  C2_2 
REMARK    2  A    between atoms: C2_2  and  O1_3 
REMARK    3  A    between atoms: O1_3  and  C3_4 
REMARK    4  A    between atoms: C3_4  and  C4_6 
REMARK    5  A    between atoms: C4_6  and  N2_9 
ROOT
ATOM      1  C4  <0> d          -1.329   1.940   0.019  0.00  0.00     0.293 C 
ATOM      2  C5  <0> d          -1.634   2.382   1.389  0.00  0.00     0.105 C 
ATOM      3  N1  <0> d          -1.868   2.724   2.447  0.00  0.00    -0.194 NA
ATOM      4  H8  <0> d          -1.290   2.820  -0.639  0.00  0.00     0.128 H 
ENDROOT
BRANCH   1   5
ATOM      5  C3  <0> d          -0.014   1.204   0.009  0.00  0.00     0.306 C 
ATOM      6  O2  <0> d           0.002  -0.004   0.002  0.00  0.00    -0.262 OA
BRANCH   5   7
ATOM      7  O1  <0> d           1.139   1.891   0.001  0.00  0.00    -0.319 OA
BRANCH   7   8
ATOM      8  C2  <0> d           2.367   1.117  -0.015  0.00  0.00     0.026 C 
ATOM      9  H4  <0> d           2.392   0.487  -0.916  0.00  0.00     0.074 H 
ATOM     10  H5  <0> d           2.409   0.478   0.880  0.00  0.00     0.074 H 
BRANCH   8  11
ATOM     11  C1  <0> d           3.568   2.065  -0.021  0.00  0.00    -0.056 C 
ATOM     12  H1  <0> d           4.498   1.479  -0.033  0.00  0.00     0.030 H 
ATOM     13  H2  <0> d           3.542   2.695   0.881  0.00  0.00     0.030 H 
ATOM     14  H3  <0> d           3.525   2.704  -0.915  0.00  0.00     0.030 H 
ENDBRANCH   8  11
ENDBRANCH   7   8
ENDBRANCH   5   7
ENDBRANCH   1   5
BRANCH   1  15
ATOM     15  N2  <0> d          -2.394   1.046  -0.455  0.00  0.00     0.106 N 
ATOM     16  H6  <0> d          -3.354   1.583  -0.447  0.00  0.00     0.315 HD
ATOM     17  H7  <0> d          -2.167   0.715  -1.479  0.00  0.00     0.315 HD
ENDBRANCH   1  15
TORSDOF 5
