REMARK  4 active torsions:
REMARK  status: ('A' for Active; 'I' for Inactive)
REMARK    1  A    between atoms: C1_1  and  C2_2 
REMARK    2  A    between atoms: C2_2  and  S1_3 
REMARK    3  A    between atoms: S1_3  and  C3_4 
REMARK    4  A    between atoms: C6_8  and  N3_10 
ROOT
ATOM      1  C3  <0> d          -1.233   3.338   0.032  0.00  0.00     0.113 A 
ATOM      2  C4  <0> d          -0.038   4.063   0.024  0.00  0.00    -0.030 A 
ATOM      3  C5  <0> d           1.154   3.366   0.009  0.00  0.00     0.024 A 
ATOM      4  N1  <0> d           1.131   2.041   0.002  0.00  0.00    -0.075 NA
ATOM      5  C6  <0> d          -0.017   1.380   0.010  0.00  0.00     0.721 A 
ATOM      6  N2  <0> d          -1.182   2.010   0.019  0.00  0.00    -0.056 NA
ATOM      7  H6  <0> d          -0.046   5.143   0.030  0.00  0.00     0.090 H 
ATOM      8  H7  <0> d           2.095   3.896   0.003  0.00  0.00     0.115 H 
ENDROOT
BRANCH   1   9
ATOM      9  S1  <0> d          -2.784   4.173   0.051  0.00  0.00    -0.110 SA
BRANCH   9  10
ATOM     10  C2  <0> d          -3.906   2.753   0.054  0.00  0.00    -0.021 C 
ATOM     11  H4  <0> d          -3.736   2.154  -0.841  0.00  0.00     0.049 H 
ATOM     12  H5  <0> d          -3.719   2.145   0.939  0.00  0.00     0.049 H 
BRANCH  10  13
ATOM     13  C1  <0> d          -5.354   3.246   0.070  0.00  0.00    -0.068 C 
ATOM     14  H1  <0> d          -6.029   2.390   0.072  0.00  0.00     0.028 H 
ATOM     15  H2  <0> d          -5.524   3.845   0.965  0.00  0.00     0.028 H 
ATOM     16  H3  <0> d          -5.540   3.854  -0.815  0.00  0.00     0.028 H 
ENDBRANCH  10  13
ENDBRANCH   9  10
ENDBRANCH   1   9
BRANCH   5  17
ATOM     17  N3  <0> d           0.002  -0.004   0.002  0.00  0.00    -0.231 N 
ATOM     18  H8  <0> d           0.849  -0.478  -0.009  0.00  0.00     0.174 HD
ATOM     19  H9  <0> d          -0.831  -0.500   0.007  0.00  0.00     0.174 HD
ENDBRANCH   5  17
TORSDOF 4
