REMARK  4 active torsions:
REMARK  status: ('A' for Active; 'I' for Inactive)
REMARK    1  A    between atoms: C1_1  and  C2_2 
REMARK    2  A    between atoms: C2_2  and  C3_3 
REMARK    3  A    between atoms: C4_5  and  C5_8 
REMARK    4  A    between atoms: C5_8  and  O2_9 
ROOT
ATOM      1  C3  <0> d          -0.619   3.532   0.026  0.00  0.00     0.155 A 
ATOM      2  N1  <0> d          -1.082   2.269   0.019  0.00  0.00    -0.207 NA
ATOM      3  C4  <0> d          -0.018   1.503   0.010  0.00  0.00     0.196 A 
ATOM      4  O1  <0> d           1.044   2.313   0.004  0.00  0.00    -0.194 OA
ATOM      5  N2  <0> d           0.679   3.470   0.013  0.00  0.00    -0.111 NA
ENDROOT
BRANCH   1   6
ATOM      6  C2  <0> d          -1.452   4.788   0.039  0.00  0.00    -0.009 C 
ATOM      7  H4  <0> d          -2.390   4.596   0.560  0.00  0.00     0.044 H 
ATOM      8  H5  <0> d          -0.906   5.580   0.552  0.00  0.00     0.044 H 
BRANCH   6   9
ATOM      9  C1  <0> d          -1.746   5.220  -1.398  0.00  0.00    -0.070 C 
ATOM     10  H1  <0> d          -0.808   5.412  -1.919  0.00  0.00     0.028 H 
ATOM     11  H2  <0> d          -2.292   4.428  -1.911  0.00  0.00     0.028 H 
ATOM     12  H3  <0> d          -2.349   6.128  -1.389  0.00  0.00     0.028 H 
ENDBRANCH   6   9
ENDBRANCH   1   6
BRANCH   3  13
ATOM     13  C5  <0> d           0.002  -0.004   0.002  0.00  0.00     0.080 C 
ATOM     14  H6  <0> d           0.902  -0.358   0.506  0.00  0.00     0.086 H 
ATOM     15  H7  <0> d          -0.878  -0.382   0.522  0.00  0.00     0.086 H 
BRANCH  13  16
ATOM     16  O2  <0> d          -0.004  -0.473  -1.348  0.00  0.00    -0.393 OA
ATOM     17  H8  <0> d           0.009  -1.437  -1.429  0.00  0.00     0.210 HD
ENDBRANCH  13  16
ENDBRANCH   3  13
TORSDOF 4
