REMARK  2 active torsions:
REMARK  status: ('A' for Active; 'I' for Inactive)
REMARK    1  A    between atoms: C1_1  and  O1_2 
REMARK    2  A    between atoms: O1_2  and  C2_3 
REMARK       I    between atoms: C2_3  and  N1_5 
ROOT
ATOM      1  C2  <0> d          -0.014   1.211   0.009  0.00  0.00     0.366 C 
ATOM      2  O2  <0> d           0.002  -0.004   0.002  0.00  0.00    -0.238 OA
ATOM      3  N1  <0> d          -1.191   1.869   0.018  0.00  0.00    -0.304 N 
ATOM      4  C3  <0> d          -2.519   1.239   0.021  0.00  0.00     0.007 A 
ATOM      5  C4  <0> d          -3.494   2.432   0.032  0.00  0.00    -0.033 A 
ATOM      6  C5  <0> d          -2.588   3.643   0.035  0.00  0.00    -0.086 A 
ATOM      7  C6  <0> d          -1.340   3.245   0.032  0.00  0.00    -0.019 A 
ATOM      8  H4  <0> d          -2.660   0.639  -0.878  0.00  0.00     0.065 H 
ATOM      9  H5  <0> d          -2.650   0.626   0.913  0.00  0.00     0.065 H 
ATOM     10  H6  <0> d          -4.119   2.424  -0.861  0.00  0.00     0.041 H 
ATOM     11  H7  <0> d          -4.111   2.414   0.931  0.00  0.00     0.041 H 
ATOM     12  H8  <0> d          -2.918   4.671   0.043  0.00  0.00     0.079 H 
ATOM     13  H9  <0> d          -0.503   3.929   0.037  0.00  0.00     0.111 H 
ENDROOT
BRANCH   1  14
ATOM     14  O1  <0> d           1.142   1.900   0.001  0.00  0.00    -0.309 OA
BRANCH  14  15
ATOM     15  C1  <0> d           2.371   1.126  -0.015  0.00  0.00     0.015 C 
ATOM     16  H1  <0> d           3.226   1.802  -0.019  0.00  0.00     0.067 H 
ATOM     17  H2  <0> d           2.413   0.493   0.872  0.00  0.00     0.067 H 
ATOM     18  H3  <0> d           2.396   0.502  -0.908  0.00  0.00     0.067 H 
ENDBRANCH  14  15
ENDBRANCH   1  14
TORSDOF 2
