REMARK  5 active torsions:
REMARK  status: ('A' for Active; 'I' for Inactive)
REMARK    1  A    between atoms: C1_1  and  C2_2 
REMARK    2  A    between atoms: C2_2  and  C5_7 
REMARK    3  A    between atoms: C5_7  and  C6_8 
REMARK    4  A    between atoms: C5_7  and  C7_9 
REMARK    5  A    between atoms: C5_7  and  O3_10 
ROOT
ATOM      1  C2  <0> d          -2.090   1.877  -0.641  0.00  0.00     0.190 C 
ATOM      2  O1  <0> d          -0.766   1.591  -1.112  0.00  0.00    -0.351 OA
ATOM      3  C3  <0> d          -0.013   1.086   0.008  0.00  0.00     0.043 C 
ATOM      4  C4  <0> d          -0.799   1.616   1.233  0.00  0.00     0.043 C 
ATOM      5  O2  <0> d          -2.168   1.538   0.753  0.00  0.00    -0.351 OA
ATOM      6  H4  <0> d           0.002  -0.004   0.002  0.00  0.00     0.077 H 
ATOM      7  H5  <0> d           1.002   1.484   0.001  0.00  0.00     0.077 H 
ATOM      8  H6  <0> d          -0.649   0.974   2.101  0.00  0.00     0.077 H 
ATOM      9  H7  <0> d          -0.522   2.646   1.459  0.00  0.00     0.077 H 
ENDROOT
BRANCH   1  10
ATOM     10  C1  <0> d          -2.391   3.366  -0.824  0.00  0.00    -0.022 C 
ATOM     11  H1  <0> d          -2.332   3.621  -1.882  0.00  0.00     0.035 H 
ATOM     12  H2  <0> d          -3.393   3.582  -0.454  0.00  0.00     0.035 H 
ATOM     13  H3  <0> d          -1.663   3.954  -0.266  0.00  0.00     0.035 H 
ENDBRANCH   1  10
BRANCH   1  14
ATOM     14  C5  <0> d          -3.106   1.047  -1.429  0.00  0.00     0.106 C 
BRANCH  14  15
ATOM     15  C6  <0> d          -2.797  -0.441  -1.250  0.00  0.00    -0.043 C 
ATOM     16  H8  <0> d          -2.858  -0.700  -0.193  0.00  0.00     0.031 H 
ATOM     17  H9  <0> d          -3.521  -1.032  -1.812  0.00  0.00     0.031 H 
ATOM     18  H10 <0> d          -1.793  -0.651  -1.619  0.00  0.00     0.031 H 
ENDBRANCH  14  15
BRANCH  14  19
ATOM     19  C7  <0> d          -4.516   1.341  -0.912  0.00  0.00    -0.043 C 
ATOM     20  H11 <0> d          -4.736   2.401  -1.039  0.00  0.00     0.031 H 
ATOM     21  H12 <0> d          -5.239   0.750  -1.473  0.00  0.00     0.031 H 
ATOM     22  H13 <0> d          -4.576   1.082   0.145  0.00  0.00     0.031 H 
ENDBRANCH  14  19
BRANCH  14  23
ATOM     23  O3  <0> d          -3.026   1.387  -2.815  0.00  0.00    -0.385 OA
ATOM     24  H14 <0> d          -3.644   0.898  -3.376  0.00  0.00     0.210 HD
ENDBRANCH  14  23
ENDBRANCH   1  14
TORSDOF 5
