REMARK  2 active torsions:
REMARK  status: ('A' for Active; 'I' for Inactive)
REMARK    1  A    between atoms: C1_1  and  N1_2 
REMARK    2  A    between atoms: N1_2  and  C2_3 
ROOT
ATOM      1  C2  <0> d           0.002  -0.004   0.002  0.00  0.00     0.701 A 
ATOM      2  N2  <0> d          -0.016   1.361   0.009  0.00  0.00    -0.188 N 
ATOM      3  H1  <0> d          -0.830   1.943   0.020  0.00  0.00     0.184 HD
ATOM      4  C3  <0> d           1.301   1.790  -0.001  0.00  0.00     0.078 A 
ATOM      5  C4  <0> d           1.906   3.038   0.000  0.00  0.00    -0.054 A 
ATOM      6  C5  <0> d           3.282   3.133  -0.013  0.00  0.00    -0.081 A 
ATOM      7  C6  <0> d           4.066   1.989  -0.026  0.00  0.00    -0.081 A 
ATOM      8  C7  <0> d           3.482   0.742  -0.027  0.00  0.00    -0.052 A 
ATOM      9  C8  <0> d           2.090   0.628  -0.015  0.00  0.00     0.103 A 
ATOM     10  N3  <0> d           1.240  -0.432  -0.012  0.00  0.00    -0.063 NA
ATOM     11  H6  <0> d           1.301   3.932   0.011  0.00  0.00     0.087 H 
ATOM     12  H7  <0> d           3.752   4.106  -0.011  0.00  0.00     0.083 H 
ATOM     13  H8  <0> d           5.142   2.077  -0.035  0.00  0.00     0.083 H 
ATOM     14  H9  <0> d           4.098  -0.145  -0.038  0.00  0.00     0.087 H 
ENDROOT
BRANCH   1  15
ATOM     15  N1  <0> d          -1.116  -0.811   0.008  0.00  0.00    -0.229 N 
ATOM     16  H5  <0> d          -1.017  -1.776   0.002  0.00  0.00     0.177 HD
BRANCH  15  17
ATOM     17  C1  <0> d          -2.452  -0.212   0.023  0.00  0.00    -0.005 C 
ATOM     18  H2  <0> d          -3.204  -1.001   0.026  0.00  0.00     0.057 H 
ATOM     19  H3  <0> d          -2.565   0.401   0.918  0.00  0.00     0.057 H 
ATOM     20  H4  <0> d          -2.582   0.410  -0.862  0.00  0.00     0.057 H 
ENDBRANCH  15  17
ENDBRANCH   1  15
TORSDOF 2
