REMARK  6 active torsions:
REMARK  status: ('A' for Active; 'I' for Inactive)
REMARK    1  A    between atoms: C1_1  and  C2_2 
REMARK    2  A    between atoms: C2_2  and  N1_3 
REMARK    3  A    between atoms: C3_4  and  C8_12 
REMARK    4  A    between atoms: C4_5  and  C6_8 
REMARK    5  A    between atoms: C6_8  and  C7_10 
REMARK    6  A    between atoms: C6_8  and  O1_11 
ROOT
ATOM      1  N1  <0> d          -0.167   5.170   1.565  0.00  0.00    -0.274 N 
ATOM      2  C3  <0> d           0.234   3.893   1.737  0.00  0.00     0.037 A 
ATOM      3  C4  <0> d          -0.749   3.086   1.275  0.00  0.00     0.013 A 
ATOM      4  C5  <0> d          -1.790   3.897   0.812  0.00  0.00     0.032 A 
ATOM      5  N2  <0> d          -1.442   5.147   0.985  0.00  0.00    -0.184 NA
ATOM      6  H7  <0> d          -2.720   3.552   0.385  0.00  0.00     0.118 H 
ENDROOT
BRANCH   3   7
ATOM      7  C6  <0> d          -0.729   1.579   1.267  0.00  0.00     0.060 C 
ATOM      8  H1  <0> d          -0.253   1.196   2.182  0.00  0.00     0.090 H 
BRANCH   7   9
ATOM      9  C7  <0> d          -0.013   1.086   0.008  0.00  0.00    -0.049 C 
ATOM     10  H8  <0> d           0.002  -0.014   0.002  0.00  0.00     0.031 H 
ATOM     11  H9  <0> d           1.019   1.467   0.000  0.00  0.00     0.031 H 
ATOM     12  H10 <0> d          -0.545   1.450  -0.883  0.00  0.00     0.031 H 
ENDBRANCH   7   9
BRANCH   7  13
ATOM     13  O1  <0> d          -2.070   1.085   1.277  0.00  0.00    -0.391 OA
ATOM     14  H11 <0> d          -2.256   0.001   1.273  0.00  0.00     0.210 HD
ENDBRANCH   7  13
ENDBRANCH   3   7
BRANCH   2  15
ATOM     15  C8  <0> d           1.543   3.446   2.335  0.00  0.00    -0.035 C 
ATOM     16  H12 <0> d           1.585   2.347   2.345  0.00  0.00     0.035 H 
ATOM     17  H13 <0> d           1.625   3.825   3.364  0.00  0.00     0.035 H 
ATOM     18  H14 <0> d           2.374   3.840   1.732  0.00  0.00     0.035 H 
ENDBRANCH   2  15
BRANCH   1  19
ATOM     19  C2  <0> d           0.594   6.369   1.925  0.00  0.00     0.014 C 
ATOM     20  H5  <0> d           0.328   7.191   1.244  0.00  0.00     0.066 H 
ATOM     21  H6  <0> d           1.671   6.158   1.842  0.00  0.00     0.066 H 
BRANCH  19  22
ATOM     22  C1  <0> d           0.263   6.770   3.364  0.00  0.00    -0.059 C 
ATOM     23  H2  <0> d           0.835   7.670   3.634  0.00  0.00     0.029 H 
ATOM     24  H3  <0> d           0.529   5.948   4.044  0.00  0.00     0.029 H 
ATOM     25  H4  <0> d          -0.814   6.980   3.447  0.00  0.00     0.029 H 
ENDBRANCH  19  22
ENDBRANCH   1  19
TORSDOF 6
