REMARK  1 active torsions:
REMARK  status: ('A' for Active; 'I' for Inactive)
REMARK    1  A    between atoms: C6_8  and  N2_10 
ROOT
ATOM      1  C1  <0> d          -0.018   1.451   0.010  0.00  0.00    -0.048 A 
ATOM      2  C2  <0> d           1.143   2.124   0.003  0.00  0.00    -0.042 A 
ATOM      3  S1  <0> d           2.373   0.835  -0.016  0.00  0.00    -0.100 SA
ATOM      4  C3  <0> d           1.295  -0.573  -0.013  0.00  0.00     0.035 A 
ATOM      5  C4  <0> d           0.002  -0.004   0.002  0.00  0.00     0.074 A 
ATOM      6  N1  <0> d          -1.044  -0.856   0.007  0.00  0.00    -0.258 NA
ATOM      7  C5  <0> d          -0.894  -2.156  -0.001  0.00  0.00     0.028 A 
ATOM      8  C6  <0> d           0.363  -2.757  -0.016  0.00  0.00     0.044 A 
ATOM      9  C7  <0> d           1.489  -1.937  -0.023  0.00  0.00    -0.037 A 
ATOM     10  H1  <0> d          -0.957   1.983   0.026  0.00  0.00     0.087 H 
ATOM     11  H2  <0> d           1.295   3.194   0.006  0.00  0.00     0.095 H 
ATOM     12  H3  <0> d          -1.773  -2.783   0.004  0.00  0.00     0.118 H 
ATOM     13  H4  <0> d           2.483  -2.358  -0.035  0.00  0.00     0.089 H 
ENDROOT
BRANCH   8  14
ATOM     14  N2  <0> d           0.491  -4.150  -0.024  0.00  0.00    -0.398 N 
ATOM     15  H5  <0> d          -0.301  -4.710  -0.019  0.00  0.00     0.156 HD
ATOM     16  H6  <0> d           1.372  -4.556  -0.034  0.00  0.00     0.156 HD
ENDBRANCH   8  14
TORSDOF 1
