REMARK  3 active torsions:
REMARK  status: ('A' for Active; 'I' for Inactive)
REMARK    1  A    between atoms: C1_1  and  C2_2 
REMARK    2  A    between atoms: C5_5  and  N1_10 
REMARK    3  A    between atoms: C6_6  and  C8_9 
ROOT
ATOM      1  C2  <0> d          -0.648   2.253   3.546  0.00  0.00    -0.023 A 
ATOM      2  C3  <0> d          -2.014   2.466   3.528  0.00  0.00    -0.072 A 
ATOM      3  C4  <0> d          -2.737   2.234   2.374  0.00  0.00    -0.057 A 
ATOM      4  C5  <0> d          -2.089   1.791   1.227  0.00  0.00     0.034 A 
ATOM      5  C6  <0> d          -0.718   1.572   1.248  0.00  0.00     0.003 A 
ATOM      6  C7  <0> d           0.000   1.806   2.407  0.00  0.00     0.130 A 
ATOM      7  F1  <0> d           1.335   1.599   2.427  0.00  0.00    -0.205 F 
ATOM      8  H4  <0> d          -2.518   2.815   4.418  0.00  0.00     0.084 H 
ATOM      9  H5  <0> d          -3.804   2.400   2.362  0.00  0.00     0.086 H 
ENDROOT
BRANCH   1  10
ATOM     10  C1  <0> d           0.136   2.508   4.807  0.00  0.00    -0.048 C 
ATOM     11  H1  <0> d           0.481   3.542   4.818  0.00  0.00     0.033 H 
ATOM     12  H2  <0> d          -0.500   2.328   5.673  0.00  0.00     0.033 H 
ATOM     13  H3  <0> d           0.995   1.838   4.842  0.00  0.00     0.033 H 
ENDBRANCH   1  10
BRANCH   5  14
ATOM     14  C8  <0> d          -0.013   1.086   0.008  0.00  0.00    -0.046 C 
ATOM     15  H6  <0> d           0.002  -0.004   0.002  0.00  0.00     0.033 H 
ATOM     16  H7  <0> d           1.010   1.463   0.000  0.00  0.00     0.033 H 
ATOM     17  H8  <0> d          -0.540   1.447  -0.875  0.00  0.00     0.033 H 
ENDBRANCH   5  14
BRANCH   4  18
ATOM     18  N1  <0> d          -2.817   1.560   0.058  0.00  0.00    -0.399 N 
ATOM     19  H9  <0> d          -2.364   1.247  -0.741  0.00  0.00     0.156 HD
ATOM     20  H10 <0> d          -3.775   1.713   0.044  0.00  0.00     0.156 HD
ENDBRANCH   4  18
TORSDOF 3
