REMARK  6 active torsions:
REMARK  status: ('A' for Active; 'I' for Inactive)
REMARK    1  A    between atoms: C1_1  and  C2_2 
REMARK    2  A    between atoms: C2_2  and  C3_4 
REMARK    3  A    between atoms: C2_2  and  C7_10 
REMARK    4  A    between atoms: C3_4  and  C4_5 
REMARK    5  A    between atoms: C4_5  and  C5_7 
REMARK    6  A    between atoms: C4_5  and  C6_8 
ROOT
ATOM      1  C3  <0> d           0.723  -0.398   1.296  0.00  0.00    -0.041 C 
ATOM      2  H6  <0> d           0.219  -0.035   2.192  0.00  0.00     0.035 H 
ATOM      3  H7  <0> d           0.745  -1.488   1.308  0.00  0.00     0.035 H 
ENDROOT
BRANCH   1   4
ATOM      4  C2  <0> d           2.154   0.141   1.263  0.00  0.00     0.028 C 
ATOM      5  H1  <0> d           2.625  -0.136   0.319  0.00  0.00     0.056 H 
BRANCH   4   6
ATOM      6  C1  <0> d           2.129   1.665   1.392  0.00  0.00    -0.064 C 
ATOM      7  H3  <0> d           1.578   1.944   2.290  0.00  0.00     0.028 H 
ATOM      8  H4  <0> d           3.150   2.041   1.460  0.00  0.00     0.028 H 
ATOM      9  H5  <0> d           1.640   2.096   0.518  0.00  0.00     0.028 H 
ENDBRANCH   4   6
BRANCH   4  10
ATOM     10  C7  <0> d           2.939  -0.447   2.407  0.00  0.00     0.176 C 
ATOM     11  O2  <0> d           2.408  -1.218   3.171  0.00  0.00    -0.648 OA
ATOM     12  O4  <0> d           4.228  -0.115   2.578  0.00  0.00    -0.648 OA
ENDBRANCH   4  10
ENDBRANCH   1   4
BRANCH   1  13
ATOM     13  C4  <0> d          -0.032   0.083   0.055  0.00  0.00     0.028 C 
ATOM     14  H2  <0> d           0.046   1.168  -0.020  0.00  0.00     0.056 H 
BRANCH  13  15
ATOM     15  C5  <0> d          -1.505  -0.315   0.168  0.00  0.00    -0.064 C 
ATOM     16  H8  <0> d          -1.915   0.069   1.102  0.00  0.00     0.028 H 
ATOM     17  H9  <0> d          -2.060   0.103  -0.671  0.00  0.00     0.028 H 
ATOM     18  H10 <0> d          -1.590  -1.402   0.154  0.00  0.00     0.028 H 
ENDBRANCH  13  15
BRANCH  13  19
ATOM     19  C6  <0> d           0.567  -0.549  -1.174  0.00  0.00     0.176 C 
ATOM     20  O1  <0> d           1.502  -1.308  -1.069  0.00  0.00    -0.648 OA
ATOM     21  O3  <0> d           0.062  -0.271  -2.386  0.00  0.00    -0.648 OA
ENDBRANCH  13  19
ENDBRANCH   1  13
TORSDOF 6
