REMARK  4 active torsions:
REMARK  status: ('A' for Active; 'I' for Inactive)
REMARK    1  A    between atoms: C1_1  and  C2_2 
REMARK    2  A    between atoms: C2_2  and  C3_4 
REMARK    3  A    between atoms: C2_2  and  O1_10 
REMARK    4  A    between atoms: C4_5  and  C5_6 
ROOT
ATOM      1  C2  <0> d          -0.018   1.468   0.010  0.00  0.00     0.090 C 
ATOM      2  H1  <0> d          -0.545   1.829  -0.873  0.00  0.00     0.102 H 
ENDROOT
BRANCH   1   3
ATOM      3  C1  <0> d           1.417   1.997  -0.001  0.00  0.00    -0.043 C 
ATOM      4  H2  <0> d           1.928   1.646  -0.897  0.00  0.00     0.032 H 
ATOM      5  H3  <0> d           1.403   3.087   0.005  0.00  0.00     0.032 H 
ATOM      6  H4  <0> d           1.945   1.636   0.882  0.00  0.00     0.032 H 
ENDBRANCH   1   3
BRANCH   1   7
ATOM      7  C3  <0> d           0.002  -0.004   0.002  0.00  0.00    -0.066 C 
ATOM      8  C4  <0> d           0.018  -1.178  -0.004  0.00  0.00     0.011 C 
BRANCH   8   9
ATOM      9  C5  <0> d           0.038  -2.650  -0.013  0.00  0.00     0.459 C 
ATOM     10  F1  <0> d          -1.274  -3.134  -0.003  0.00  0.00    -0.159 F 
ATOM     11  F2  <0> d           0.693  -3.101  -1.164  0.00  0.00    -0.159 F 
ATOM     12  F3  <0> d           0.715  -3.113   1.121  0.00  0.00    -0.159 F 
ENDBRANCH   8   9
ENDBRANCH   1   7
BRANCH   1  13
ATOM     13  O1  <0> d          -0.687   1.929   1.186  0.00  0.00    -0.384 OA
ATOM     14  H5  <0> d          -0.272   1.644   2.011  0.00  0.00     0.211 HD
ENDBRANCH   1  13
TORSDOF 4
