REMARK  4 active torsions:
REMARK  status: ('A' for Active; 'I' for Inactive)
REMARK    1  A    between atoms: C1_1  and  C2_2 
REMARK    2  A    between atoms: C2_2  and  O1_3 
REMARK    3  A    between atoms: O1_3  and  C3_4 
REMARK    4  A    between atoms: C3_4  and  C4_5 
ROOT
ATOM      1  C2  <0> d           0.002  -0.004   0.002  0.00  0.00     0.017 C 
ATOM      2  H4  <0> d           0.512  -0.356  -0.895  0.00  0.00     0.073 H 
ATOM      3  H5  <0> d           0.529  -0.365   0.885  0.00  0.00     0.073 H 
ENDROOT
BRANCH   1   4
ATOM      4  C1  <0> d          -0.019   1.526   0.010  0.00  0.00    -0.056 C 
ATOM      5  H1  <0> d           1.004   1.903   0.003  0.00  0.00     0.030 H 
ATOM      6  H2  <0> d          -0.546   1.887  -0.873  0.00  0.00     0.030 H 
ATOM      7  H3  <0> d          -0.529   1.877   0.907  0.00  0.00     0.030 H 
ENDBRANCH   1   4
BRANCH   1   8
ATOM      8  O1  <0> d          -1.339  -0.499   0.012  0.00  0.00    -0.381 OA
BRANCH   8   9
ATOM      9  C3  <0> d          -1.432  -1.925   0.005  0.00  0.00     0.099 C 
ATOM     10  H6  <0> d          -0.952  -2.316  -0.891  0.00  0.00     0.091 H 
ATOM     11  H7  <0> d          -0.935  -2.325   0.888  0.00  0.00     0.091 H 
BRANCH   9  12
ATOM     12  C4  <0> d          -2.883  -2.333   0.017  0.00  0.00     0.197 C 
ATOM     13  O2  <0> d          -3.756  -1.482   0.030  0.00  0.00    -0.646 OA
ATOM     14  O3  <0> d          -3.183  -3.514   0.014  0.00  0.00    -0.646 OA
ENDBRANCH   9  12
ENDBRANCH   8   9
ENDBRANCH   1   8
TORSDOF 4
