REMARK  3 active torsions:
REMARK  status: ('A' for Active; 'I' for Inactive)
REMARK    1  A    between atoms: C1_1  and  C2_2 
REMARK    2  A    between atoms: C2_2  and  C3_3 
REMARK    3  A    between atoms: C3_3  and  C4_5 
ROOT
ATOM      1  C4  <0> d           0.859  -1.932  -1.480  0.00  0.00     0.048 A 
ATOM      2  C5  <0> d           0.355  -2.857  -0.558  0.00  0.00    -0.067 A 
ATOM      3  C6  <0> d           0.497  -4.207  -0.794  0.00  0.00    -0.082 A 
ATOM      4  C7  <0> d           1.145  -4.651  -1.935  0.00  0.00    -0.080 A 
ATOM      5  C8  <0> d           1.652  -3.747  -2.849  0.00  0.00    -0.045 A 
ATOM      6  C9  <0> d           1.514  -2.388  -2.631  0.00  0.00     0.130 A 
ATOM      7  F1  <0> d           2.010  -1.504  -3.524  0.00  0.00    -0.205 F 
ATOM      8  H6  <0> d          -0.147  -2.514   0.334  0.00  0.00     0.085 H 
ATOM      9  H7  <0> d           0.105  -4.921  -0.086  0.00  0.00     0.083 H 
ATOM     10  H8  <0> d           1.256  -5.711  -2.111  0.00  0.00     0.083 H 
ATOM     11  H9  <0> d           2.156  -4.102  -3.736  0.00  0.00     0.088 H 
ENDROOT
BRANCH   1  12
ATOM     12  C3  <0> d           0.707  -0.490  -1.238  0.00  0.00     0.162 C 
ATOM     13  O1  <0> d           1.150   0.308  -2.036  0.00  0.00    -0.292 OA
BRANCH  12  14
ATOM     14  C2  <0> d           0.002  -0.004   0.002  0.00  0.00    -0.008 C 
ATOM     15  H4  <0> d           0.486  -0.335   0.812  0.00  0.00     0.044 H 
ATOM     16  H5  <0> d          -1.020  -0.381   0.010  0.00  0.00     0.044 H 
BRANCH  14  17
ATOM     17  C1  <0> d          -0.019   1.526   0.010  0.00  0.00    -0.070 C 
ATOM     18  H1  <0> d           1.004   1.903   0.003  0.00  0.00     0.028 H 
ATOM     19  H2  <0> d          -0.546   1.887  -0.873  0.00  0.00     0.028 H 
ATOM     20  H3  <0> d          -0.529   1.877   0.907  0.00  0.00     0.028 H 
ENDBRANCH  14  17
ENDBRANCH  12  14
ENDBRANCH   1  12
TORSDOF 3
