REMARK  0 active torsions:
REMARK  status: ('A' for Active; 'I' for Inactive)
ROOT
ATOM      1  C1  <0> d          -0.562   1.853  -1.394  0.00  0.00    -0.018 C 
ATOM      2  C2  <0> d          -0.018   1.462   0.010  0.00  0.00     0.070 C 
ATOM      3  H1  <0> d          -0.584   1.882   0.841  0.00  0.00     0.087 H 
ATOM      4  C3  <0> d           1.468   1.897  -0.002  0.00  0.00     0.053 C 
ATOM      5  O1  <0> d           2.170   1.069  -1.013  0.00  0.00    -0.318 OA
ATOM      6  C4  <0> d           1.560   0.936  -2.210  0.00  0.00     0.272 C 
ATOM      7  O2  <0> d           2.181   1.020  -3.242  0.00  0.00    -0.264 OA
ATOM      8  C5  <0> d           0.057   0.676  -2.210  0.00  0.00     0.116 C 
ATOM      9  H2  <0> d          -0.374   0.532  -3.201  0.00  0.00     0.071 H 
ATOM     10  C6  <0> d          -0.179  -0.480  -1.240  0.00  0.00     0.273 C 
ATOM     11  O3  <0> d          -0.474  -1.613  -1.536  0.00  0.00    -0.264 OA
ATOM     12  O4  <0> d           0.002  -0.004   0.002  0.00  0.00    -0.313 OA
ATOM     13  H3  <0> d          -1.652   1.833  -1.423  0.00  0.00     0.038 H 
ATOM     14  H4  <0> d          -0.173   2.817  -1.721  0.00  0.00     0.038 H 
ATOM     15  H5  <0> d           1.542   2.951  -0.269  0.00  0.00     0.079 H 
ATOM     16  H6  <0> d           1.910   1.733   0.981  0.00  0.00     0.079 H 
ENDROOT
TORSDOF 0
