REMARK  2 active torsions:
REMARK  status: ('A' for Active; 'I' for Inactive)
REMARK    1  A    between atoms: C1_1  and  C2_2 
REMARK    2  A    between atoms: C6_8  and  C7_10 
ROOT
ATOM      1  C2  <0> d           0.002  -0.004   0.002  0.00  0.00    -0.048 C 
ATOM      2  H1  <0> d           0.499  -0.367  -0.897  0.00  0.00     0.040 H 
ATOM      3  C3  <0> d          -1.437  -0.555   0.073  0.00  0.00    -0.006 C 
ATOM      4  C4  <0> d          -1.325  -1.794   0.955  0.00  0.00     0.127 C 
ATOM      5  O1  <0> d          -1.894  -2.853   0.836  0.00  0.00    -0.298 OA
ATOM      6  C5  <0> d          -0.320  -1.375   2.022  0.00  0.00    -0.006 C 
ATOM      7  C6  <0> d           0.723  -0.532   1.257  0.00  0.00    -0.048 C 
ATOM      8  H2  <0> d           1.571  -1.153   0.969  0.00  0.00     0.040 H 
ATOM      9  H6  <0> d          -2.104   0.177   0.528  0.00  0.00     0.044 H 
ATOM     10  H7  <0> d          -1.791  -0.827  -0.922  0.00  0.00     0.044 H 
ATOM     11  H8  <0> d          -0.809  -0.773   2.789  0.00  0.00     0.044 H 
ATOM     12  H9  <0> d           0.151  -2.251   2.467  0.00  0.00     0.044 H 
ENDROOT
BRANCH   1  13
ATOM     13  C1  <0> d          -0.019   1.526   0.010  0.00  0.00    -0.072 C 
ATOM     14  H3  <0> d           1.004   1.903   0.003  0.00  0.00     0.028 H 
ATOM     15  H4  <0> d          -0.546   1.887  -0.873  0.00  0.00     0.028 H 
ATOM     16  H5  <0> d          -0.529   1.877   0.907  0.00  0.00     0.028 H 
ENDBRANCH   1  13
BRANCH   7  17
ATOM     17  C7  <0> d           1.195   0.637   2.123  0.00  0.00    -0.072 C 
ATOM     18  H10 <0> d           0.336   1.233   2.429  0.00  0.00     0.028 H 
ATOM     19  H11 <0> d           1.704   0.252   3.007  0.00  0.00     0.028 H 
ATOM     20  H12 <0> d           1.884   1.259   1.551  0.00  0.00     0.028 H 
ENDBRANCH   7  17
TORSDOF 2
