REMARK  4 active torsions:
REMARK  status: ('A' for Active; 'I' for Inactive)
REMARK    1  A    between atoms: C1_1  and  C2_2 
REMARK    2  A    between atoms: C3_3  and  C6_9 
REMARK    3  A    between atoms: N2_5  and  C5_8 
REMARK    4  A    between atoms: C4_6  and  N3_7 
ROOT
ATOM      1  C2  <0> d           1.276   1.777  -0.001  0.00  0.00     0.009 A 
ATOM      2  C3  <0> d           2.101   0.648  -0.015  0.00  0.00     0.060 A 
ATOM      3  N1  <0> d           1.341  -0.417  -0.013  0.00  0.00    -0.176 NA
ATOM      4  N2  <0> d           0.002  -0.004   0.002  0.00  0.00    -0.258 N 
ATOM      5  C4  <0> d          -0.016   1.348   0.009  0.00  0.00     0.125 A 
ENDROOT
BRANCH   1   6
ATOM      6  C1  <0> d           1.736   3.212   0.002  0.00  0.00    -0.046 C 
ATOM      7  H1  <0> d           1.856   3.553   1.031  0.00  0.00     0.033 H 
ATOM      8  H2  <0> d           2.689   3.289  -0.520  0.00  0.00     0.033 H 
ATOM      9  H3  <0> d           0.994   3.832  -0.501  0.00  0.00     0.033 H 
ENDBRANCH   1   6
BRANCH   5  10
ATOM     10  N3  <0> d          -1.150   2.155   0.019  0.00  0.00    -0.384 N 
ATOM     11  H4  <0> d          -2.033   1.752   0.022  0.00  0.00     0.157 HD
ATOM     12  H5  <0> d          -1.058   3.121   0.024  0.00  0.00     0.157 HD
ENDBRANCH   5  10
BRANCH   2  13
ATOM     13  C6  <0> d           3.608   0.656  -0.028  0.00  0.00    -0.033 C 
ATOM     14  H9  <0> d           3.961   0.664  -1.059  0.00  0.00     0.035 H 
ATOM     15  H10 <0> d           3.971   1.545   0.487  0.00  0.00     0.035 H 
ATOM     16  H11 <0> d           3.981  -0.234   0.477  0.00  0.00     0.035 H 
ENDBRANCH   2  13
BRANCH   4  17
ATOM     17  C5  <0> d          -1.171  -0.882   0.008  0.00  0.00     0.004 C 
ATOM     18  H6  <0> d          -1.471  -1.094  -1.018  0.00  0.00     0.059 H 
ATOM     19  H7  <0> d          -0.923  -1.815   0.515  0.00  0.00     0.059 H 
ATOM     20  H8  <0> d          -1.990  -0.390   0.532  0.00  0.00     0.059 H 
ENDBRANCH   4  17
TORSDOF 4
