REMARK  4 active torsions:
REMARK  status: ('A' for Active; 'I' for Inactive)
REMARK    1  A    between atoms: C1_1  and  C2_2 
REMARK    2  A    between atoms: C2_2  and  O1_3 
REMARK    3  A    between atoms: O1_3  and  C3_4 
REMARK    4  A    between atoms: C5_7  and  C6_9 
ROOT
ATOM      1  C3  <0> d          -0.114   1.152  -2.386  0.00  0.00     0.052 A 
ATOM      2  H1  <0> d           0.625   0.545  -1.843  0.00  0.00     0.084 H 
ATOM      3  C4  <0> d          -0.099   2.168  -3.530  0.00  0.00    -0.025 A 
ATOM      4  C5  <0> d          -1.044   0.967  -3.586  0.00  0.00     0.058 A 
ATOM      5  H2  <0> d          -2.127   0.827  -3.724  0.00  0.00     0.060 H 
ATOM      6  H8  <0> d          -0.362   3.163  -3.140  0.00  0.00     0.038 H 
ATOM      7  H9  <0> d           0.906   2.204  -3.976  0.00  0.00     0.038 H 
ENDROOT
BRANCH   1   8
ATOM      8  O1  <0> d          -0.704   1.559  -1.150  0.00  0.00    -0.385 OA
BRANCH   8   9
ATOM      9  C2  <0> d          -0.013   1.086   0.008  0.00  0.00     0.017 C 
ATOM     10  H6  <0> d           1.019   1.466   0.000  0.00  0.00     0.073 H 
ATOM     11  H7  <0> d           0.002  -0.014   0.002  0.00  0.00     0.073 H 
BRANCH   9  12
ATOM     12  C1  <0> d          -0.729   1.579   1.267  0.00  0.00    -0.056 C 
ATOM     13  H3  <0> d          -0.197   1.215   2.158  0.00  0.00     0.030 H 
ATOM     14  H4  <0> d          -1.761   1.198   1.275  0.00  0.00     0.030 H 
ATOM     15  H5  <0> d          -0.744   2.679   1.273  0.00  0.00     0.030 H 
ENDBRANCH   9  12
ENDBRANCH   8   9
ENDBRANCH   1   8
BRANCH   4  16
ATOM     16  C6  <0> d          -0.713  -0.134  -4.560  0.00  0.00     0.179 C 
ATOM     17  O2  <0> d           0.257  -0.831  -4.377  0.00  0.00    -0.648 OA
ATOM     18  O3  <0> d          -1.496  -0.341  -5.630  0.00  0.00    -0.648 OA
ENDBRANCH   4  16
TORSDOF 4
