REMARK  3 active torsions:
REMARK  status: ('A' for Active; 'I' for Inactive)
REMARK    1  A    between atoms: C1_1  and  C2_2 
REMARK    2  A    between atoms: C3_3  and  N1_9 
REMARK    3  A    between atoms: N1_9  and  C8_10 
ROOT
ATOM      1  C2  <0> d           0.002  -0.004   0.002  0.00  0.00     0.003 A 
ATOM      2  C3  <0> d           0.006  -0.693  -1.204  0.00  0.00     0.036 A 
ATOM      3  C4  <0> d           0.025  -2.082  -1.208  0.00  0.00    -0.057 A 
ATOM      4  C5  <0> d           0.041  -2.775  -0.013  0.00  0.00    -0.078 A 
ATOM      5  C6  <0> d           0.036  -2.088   1.187  0.00  0.00    -0.045 A 
ATOM      6  C7  <0> d           0.023  -0.703   1.195  0.00  0.00     0.124 A 
ATOM      7  F1  <0> d           0.025  -0.035   2.369  0.00  0.00    -0.205 F 
ATOM      8  H4  <0> d           0.028  -2.620  -2.144  0.00  0.00     0.086 H 
ATOM      9  H5  <0> d           0.056  -3.855  -0.016  0.00  0.00     0.083 H 
ATOM     10  H6  <0> d           0.048  -2.633   2.120  0.00  0.00     0.088 H 
ENDROOT
BRANCH   2  11
ATOM     11  N1  <0> d          -0.010   0.010  -2.411  0.00  0.00    -0.394 N 
ATOM     12  H7  <0> d          -0.024   0.980  -2.408  0.00  0.00     0.159 HD
BRANCH  11  13
ATOM     13  C8  <0> d          -0.006  -0.718  -3.682  0.00  0.00    -0.021 C 
ATOM     14  H8  <0> d           0.892  -1.332  -3.747  0.00  0.00     0.056 H 
ATOM     15  H9  <0> d          -0.887  -1.357  -3.738  0.00  0.00     0.056 H 
ATOM     16  H10 <0> d          -0.021  -0.007  -4.508  0.00  0.00     0.056 H 
ENDBRANCH  11  13
ENDBRANCH   2  11
BRANCH   1  17
ATOM     17  C1  <0> d          -0.018   1.503   0.010  0.00  0.00    -0.046 C 
ATOM     18  H1  <0> d           1.004   1.880   0.003  0.00  0.00     0.033 H 
ATOM     19  H2  <0> d          -0.545   1.864  -0.873  0.00  0.00     0.033 H 
ATOM     20  H3  <0> d          -0.529   1.854   0.907  0.00  0.00     0.033 H 
ENDBRANCH   1  17
TORSDOF 3
