REMARK  5 active torsions:
REMARK  status: ('A' for Active; 'I' for Inactive)
REMARK    1  A    between atoms: C1_1  and  C2_2 
REMARK    2  A    between atoms: C7_7  and  N1_8 
REMARK    3  A    between atoms: N1_8  and  C8_9 
REMARK    4  A    between atoms: C8_9  and  C9_10 
REMARK    5  A    between atoms: C9_10  and  O1_11 
ROOT
ATOM      1  C2  <0> d          -0.854   1.668   3.619  0.00  0.00    -0.036 A 
ATOM      2  C3  <0> d          -0.363   1.331   4.866  0.00  0.00    -0.075 A 
ATOM      3  C4  <0> d           0.773   0.550   4.976  0.00  0.00    -0.082 A 
ATOM      4  C5  <0> d           1.421   0.103   3.839  0.00  0.00    -0.081 A 
ATOM      5  C6  <0> d           0.933   0.432   2.590  0.00  0.00    -0.057 A 
ATOM      6  C7  <0> d          -0.205   1.221   2.475  0.00  0.00     0.034 A 
ATOM      7  H4  <0> d          -0.867   1.679   5.756  0.00  0.00     0.084 H 
ATOM      8  H5  <0> d           1.154   0.288   5.952  0.00  0.00     0.083 H 
ATOM      9  H6  <0> d           2.308  -0.507   3.928  0.00  0.00     0.083 H 
ATOM     10  H7  <0> d           1.438   0.079   1.702  0.00  0.00     0.086 H 
ENDROOT
BRANCH   6  11
ATOM     11  N1  <0> d          -0.698   1.558   1.213  0.00  0.00    -0.387 N 
ATOM     12  H8  <0> d          -1.495   2.106   1.135  0.00  0.00     0.159 HD
BRANCH  11  13
ATOM     13  C8  <0> d          -0.013   1.086   0.008  0.00  0.00     0.012 C 
ATOM     14  H9  <0> d           0.002  -0.004   0.002  0.00  0.00     0.067 H 
ATOM     15  H10 <0> d           1.010   1.463   0.000  0.00  0.00     0.067 H 
BRANCH  13  16
ATOM     16  C9  <0> d          -0.753   1.593  -1.232  0.00  0.00     0.031 C 
ATOM     17  H11 <0> d          -0.296   1.169  -2.126  0.00  0.00     0.076 H 
ATOM     18  H12 <0> d          -1.798   1.290  -1.179  0.00  0.00     0.076 H 
BRANCH  16  19
ATOM     19  O1  <0> d          -0.672   3.018  -1.285  0.00  0.00    -0.399 OA
ATOM     20  H13 <0> d          -1.120   3.410  -2.047  0.00  0.00     0.209 HD
ENDBRANCH  16  19
ENDBRANCH  13  16
ENDBRANCH  11  13
ENDBRANCH   6  11
BRANCH   1  21
ATOM     21  C1  <0> d          -2.092   2.518   3.500  0.00  0.00    -0.049 C 
ATOM     22  H1  <0> d          -2.972   1.876   3.473  0.00  0.00     0.033 H 
ATOM     23  H2  <0> d          -2.157   3.187   4.358  0.00  0.00     0.033 H 
ATOM     24  H3  <0> d          -2.042   3.106   2.584  0.00  0.00     0.033 H 
ENDBRANCH   1  21
TORSDOF 5
