REMARK  4 active torsions:
REMARK  status: ('A' for Active; 'I' for Inactive)
REMARK    1  A    between atoms: C1_1  and  C2_2 
REMARK    2  A    between atoms: C2_2  and  C3_3 
REMARK    3  A    between atoms: C3_3  and  C4_4 
REMARK    4  A    between atoms: C6_8  and  C7_11 
ROOT
ATOM      1  C4  <0> d          -1.070   0.293   3.160  0.00  0.00     0.131 C 
ATOM      2  H1  <0> d          -1.550   0.914   3.917  0.00  0.00     0.129 H 
ATOM      3  O1  <0> d          -2.040  -0.132   2.179  0.00  0.00    -0.359 OA
ATOM      4  C5  <0> d          -2.170   1.026   1.315  0.00  0.00     0.046 C 
ATOM      5  C6  <0> d          -0.729   1.579   1.267  0.00  0.00     0.058 C 
ATOM      6  H2  <0> d          -0.740   2.669   1.292  0.00  0.00     0.086 H 
ATOM      7  O2  <0> d          -0.086   1.058   2.444  0.00  0.00    -0.354 OA
ATOM      8  H10 <0> d          -2.850   1.759   1.751  0.00  0.00     0.078 H 
ATOM      9  H11 <0> d          -2.504   0.732   0.321  0.00  0.00     0.078 H 
ENDROOT
BRANCH   1  10
ATOM     10  C3  <0> d          -0.415  -0.924   3.817  0.00  0.00    -0.019 C 
ATOM     11  H8  <0> d          -0.041  -1.596   3.044  0.00  0.00     0.040 H 
ATOM     12  H9  <0> d           0.413  -0.596   4.445  0.00  0.00     0.040 H 
BRANCH  10  13
ATOM     13  C2  <0> d          -1.447  -1.657   4.675  0.00  0.00    -0.064 C 
ATOM     14  H6  <0> d          -1.821  -0.985   5.447  0.00  0.00     0.032 H 
ATOM     15  H7  <0> d          -2.276  -1.985   4.047  0.00  0.00     0.032 H 
BRANCH  13  16
ATOM     16  C1  <0> d          -0.792  -2.874   5.332  0.00  0.00    -0.076 C 
ATOM     17  H3  <0> d          -1.528  -3.397   5.943  0.00  0.00     0.027 H 
ATOM     18  H4  <0> d          -0.418  -3.546   4.559  0.00  0.00     0.027 H 
ATOM     19  H5  <0> d           0.036  -2.546   5.960  0.00  0.00     0.027 H 
ENDBRANCH  13  16
ENDBRANCH  10  13
ENDBRANCH   1  10
BRANCH   5  20
ATOM     20  C7  <0> d          -0.013   1.086   0.008  0.00  0.00    -0.050 C 
ATOM     21  H12 <0> d           0.002  -0.004   0.002  0.00  0.00     0.031 H 
ATOM     22  H13 <0> d           1.010   1.463   0.000  0.00  0.00     0.031 H 
ATOM     23  H14 <0> d          -0.540   1.447  -0.875  0.00  0.00     0.031 H 
ENDBRANCH   5  20
TORSDOF 4
