REMARK  1 active torsions:
REMARK  status: ('A' for Active; 'I' for Inactive)
REMARK    1  A    between atoms: C2_2  and  C5_9 
ROOT
ATOM      1  C1  <0> d           2.452   3.740   0.004  0.00  0.00     0.002 A 
ATOM      2  C2  <0> d           1.238   3.072   0.007  0.00  0.00     0.065 A 
ATOM      3  C3  <0> d           0.055   3.848   0.022  0.00  0.00     0.038 A 
ATOM      4  N1  <0> d           0.121   5.149   0.029  0.00  0.00    -0.183 NA
ATOM      5  N2  <0> d           1.233   5.789   0.021  0.00  0.00    -0.244 N 
ATOM      6  H1  <0> d           1.235   6.889   0.027  0.00  0.00     0.192 HD
ATOM      7  C4  <0> d           2.421   5.156   0.006  0.00  0.00     0.262 A 
ATOM      8  O1  <0> d           3.460   5.795   0.000  0.00  0.00    -0.267 OA
ATOM      9  H2  <0> d           3.388   3.201  -0.003  0.00  0.00     0.093 H 
ATOM     10  H3  <0> d          -0.908   3.358   0.028  0.00  0.00     0.119 H 
ENDROOT
BRANCH   2  11
ATOM     11  C5  <0> d           1.180   1.590  -0.001  0.00  0.00     0.211 C 
ATOM     12  O2  <0> d           2.207   0.943  -0.014  0.00  0.00    -0.644 OA
ATOM     13  O3  <0> d          -0.011   0.963   0.007  0.00  0.00    -0.644 OA
ENDBRANCH   2  11
TORSDOF 1
