REMARK  1 active torsions:
REMARK  status: ('A' for Active; 'I' for Inactive)
REMARK    1  A    between atoms: C1_1  and  N1_2 
ROOT
ATOM      1  N1  <0> d          -2.264   4.076   0.045  0.00  0.00    -0.302 N 
ATOM      2  C2  <0> d          -1.238   3.134   0.031  0.00  0.00     0.065 A 
ATOM      3  C3  <0> d          -1.220   1.747   0.017  0.00  0.00    -0.055 A 
ATOM      4  C4  <0> d          -0.013   1.076   0.008  0.00  0.00    -0.081 A 
ATOM      5  C5  <0> d           1.179   1.781   0.000  0.00  0.00    -0.081 A 
ATOM      6  C6  <0> d           1.170   3.162   0.007  0.00  0.00    -0.055 A 
ATOM      7  C7  <0> d          -0.037   3.845   0.023  0.00  0.00     0.063 A 
ATOM      8  N2  <0> d          -0.370   5.197   0.033  0.00  0.00    -0.306 N 
ATOM      9  H1  <0> d           0.258   5.937   0.031  0.00  0.00     0.171 HD
ATOM     10  C8  <0> d          -1.712   5.304   0.046  0.00  0.00     0.327 A 
ATOM     11  O1  <0> d          -2.332   6.351   0.058  0.00  0.00    -0.246 OA
ATOM     12  H5  <0> d          -2.147   1.193   0.018  0.00  0.00     0.087 H 
ATOM     13  H6  <0> d           0.002  -0.004   0.002  0.00  0.00     0.083 H 
ATOM     14  H7  <0> d           2.118   1.250  -0.011  0.00  0.00     0.083 H 
ATOM     15  H8  <0> d           2.101   3.709   0.002  0.00  0.00     0.087 H 
ENDROOT
BRANCH   1  16
ATOM     16  C1  <0> d          -3.699   3.781   0.058  0.00  0.00    -0.009 C 
ATOM     17  H2  <0> d          -4.262   4.714   0.069  0.00  0.00     0.057 H 
ATOM     18  H3  <0> d          -3.960   3.209  -0.833  0.00  0.00     0.057 H 
ATOM     19  H4  <0> d          -3.942   3.199   0.947  0.00  0.00     0.057 H 
ENDBRANCH   1  16
TORSDOF 1
