REMARK  3 active torsions:
REMARK  status: ('A' for Active; 'I' for Inactive)
REMARK    1  A    between atoms: C1_1  and  C2_2 
REMARK    2  A    between atoms: C2_2  and  N1_3 
REMARK    3  A    between atoms: N1_3  and  C3_4 
ROOT
ATOM      1  N1  <0> d          -1.372  -0.511   0.012  0.00  0.00    -0.385 N 
ATOM      2  H6  <0> d          -2.118   0.109   0.023  0.00  0.00     0.160 HD
ENDROOT
BRANCH   1   3
ATOM      3  C2  <0> d           0.002  -0.004   0.002  0.00  0.00    -0.010 C 
ATOM      4  H4  <0> d           0.512  -0.356  -0.895  0.00  0.00     0.063 H 
ATOM      5  H5  <0> d           0.529  -0.365   0.885  0.00  0.00     0.063 H 
BRANCH   3   6
ATOM      6  C1  <0> d          -0.019   1.526   0.010  0.00  0.00    -0.061 C 
ATOM      7  H1  <0> d           1.004   1.903   0.003  0.00  0.00     0.029 H 
ATOM      8  H2  <0> d          -0.546   1.887  -0.873  0.00  0.00     0.029 H 
ATOM      9  H3  <0> d          -0.529   1.877   0.907  0.00  0.00     0.029 H 
ENDBRANCH   3   6
ENDBRANCH   1   3
BRANCH   1  10
ATOM     10  C3  <0> d          -1.609  -1.887   0.007  0.00  0.00     0.069 A 
ATOM     11  S1  <0> d          -0.433  -3.230  -0.012  0.00  0.00    -0.085 SA
ATOM     12  C6  <0> d          -1.595  -4.585  -0.006  0.00  0.00    -0.043 A 
ATOM     13  C5  <0> d          -2.784  -3.937   0.002  0.00  0.00    -0.074 A 
ATOM     14  H9  <0> d          -1.401  -5.647  -0.013  0.00  0.00     0.095 H 
ATOM     15  C4  <0> d          -2.797  -2.554   0.009  0.00  0.00    -0.050 A 
ATOM     16  H8  <0> d          -3.710  -4.493   0.004  0.00  0.00     0.084 H 
ATOM     17  H7  <0> d          -3.731  -2.012   0.017  0.00  0.00     0.087 H 
ENDBRANCH   1  10
TORSDOF 3
