REMARK  2 active torsions:
REMARK  status: ('A' for Active; 'I' for Inactive)
REMARK    1  A    between atoms: N1_4  and  C4_6 
REMARK    2  A    between atoms: C4_6  and  O1_7 
ROOT
ATOM      1  C1  <0> d          -0.697   3.194   0.025  0.00  0.00     0.044 A 
ATOM      2  C2  <0> d          -1.117   1.859   0.017  0.00  0.00     0.070 A 
ATOM      3  C3  <0> d          -0.013   1.076   0.008  0.00  0.00     0.023 A 
ATOM      4  N1  <0> d           1.067   1.887   0.002  0.00  0.00    -0.256 N 
ATOM      5  N2  <0> d           0.611   3.212   0.013  0.00  0.00    -0.181 NA
ATOM      6 Cl1  <0> d          -2.762   1.306   0.021  0.00  0.00    -0.081 Cl
ATOM      7  H1  <0> d          -1.342   4.060   0.035  0.00  0.00     0.120 H 
ATOM      8  H2  <0> d           0.002  -0.004   0.002  0.00  0.00     0.117 H 
ENDROOT
BRANCH   4   9
ATOM      9  C4  <0> d           2.468   1.458  -0.012  0.00  0.00     0.096 C 
ATOM     10  H3  <0> d           2.958   1.846  -0.905  0.00  0.00     0.109 H 
ATOM     11  H4  <0> d           2.974   1.838   0.875  0.00  0.00     0.109 H 
BRANCH   9  12
ATOM     12  O1  <0> d           2.528   0.030  -0.019  0.00  0.00    -0.380 OA
ATOM     13  H5  <0> d           3.427  -0.326  -0.028  0.00  0.00     0.211 HD
ENDBRANCH   9  12
ENDBRANCH   4   9
TORSDOF 2
