REMARK  8 active torsions:
REMARK  status: ('A' for Active; 'I' for Inactive)
REMARK    1  A    between atoms: C1_1  and  C2_2 
REMARK    2  A    between atoms: C2_2  and  C3_3 
REMARK    3  A    between atoms: C2_2  and  C4_4 
REMARK    4  A    between atoms: C2_2  and  O1_5 
REMARK    5  A    between atoms: O1_5  and  C5_6 
REMARK    6  A    between atoms: C5_6  and  C6_8 
REMARK    7  A    between atoms: C6_8  and  C7_9 
REMARK    8  A    between atoms: C7_9  and  O3_10 
ROOT
ATOM      1  C2  <0> d           3.984   5.592  -0.006  0.00  0.00     0.060 C 
ENDROOT
BRANCH   1   2
ATOM      2  C1  <0> d           4.713   5.118  -1.265  0.00  0.00    -0.048 C 
ATOM      3  H1  <0> d           4.757   4.019  -1.271  0.00  0.00     0.031 H 
ATOM      4  H2  <0> d           5.734   5.527  -1.272  0.00  0.00     0.031 H 
ATOM      5  H3  <0> d           4.171   5.469  -2.156  0.00  0.00     0.031 H 
ENDBRANCH   1   2
BRANCH   1   6
ATOM      6  C3  <0> d           3.922   7.121   0.003  0.00  0.00    -0.048 C 
ATOM      7  H4  <0> d           3.398   7.462   0.908  0.00  0.00     0.031 H 
ATOM      8  H5  <0> d           3.381   7.471  -0.888  0.00  0.00     0.031 H 
ATOM      9  H6  <0> d           4.943   7.529  -0.005  0.00  0.00     0.031 H 
ENDBRANCH   1   6
BRANCH   1  10
ATOM     10  C4  <0> d           4.737   5.105   1.234  0.00  0.00    -0.048 C 
ATOM     11  H7  <0> d           4.213   5.446   2.139  0.00  0.00     0.031 H 
ATOM     12  H8  <0> d           5.758   5.513   1.226  0.00  0.00     0.031 H 
ATOM     13  H9  <0> d           4.781   4.006   1.227  0.00  0.00     0.031 H 
ENDBRANCH   1  10
BRANCH   1  14
ATOM     14  O1  <0> d           2.635   5.053   0.004  0.00  0.00    -0.311 OA
BRANCH  14  15
ATOM     15  C5  <0> d           2.513   3.717  -0.002  0.00  0.00     0.261 C 
ATOM     16  O2  <0> d           3.500   3.020  -0.015  0.00  0.00    -0.265 OA
BRANCH  15  17
ATOM     17  C6  <0> d           1.145   3.085   0.008  0.00  0.00     0.035 C 
ATOM     18  H10 <0> d           0.603   3.397   0.913  0.00  0.00     0.051 H 
ATOM     19  H11 <0> d           0.586   3.407  -0.883  0.00  0.00     0.051 H 
BRANCH  17  20
ATOM     20  C7  <0> d           1.286   1.562  -0.002  0.00  0.00     0.025 C 
ATOM     21  H12 <0> d           1.828   1.250  -0.907  0.00  0.00     0.074 H 
ATOM     22  H13 <0> d           1.845   1.240   0.889  0.00  0.00     0.074 H 
BRANCH  20  23
ATOM     23  O3  <0> d          -0.011   0.963   0.007  0.00  0.00    -0.400 OA
ATOM     24  H14 <0> d          -0.111  -0.133   0.002  0.00  0.00     0.209 HD
ENDBRANCH  20  23
ENDBRANCH  17  20
ENDBRANCH  15  17
ENDBRANCH  14  15
ENDBRANCH   1  14
TORSDOF 8
