REMARK  2 active torsions:
REMARK  status: ('A' for Active; 'I' for Inactive)
REMARK    1  A    between atoms: C1_1  and  C2_2 
REMARK    2  A    between atoms: C6_8  and  C8_10 
ROOT
ATOM      1  C2  <0> d          -2.860   1.465   2.575  0.00  0.00    -0.050 C 
ATOM      2  H1  <0> d          -2.283   1.107   3.428  0.00  0.00     0.040 H 
ATOM      3  C3  <0> d          -2.962   2.993   2.633  0.00  0.00    -0.007 C 
ATOM      4  C4  <0> d          -1.576   3.574   2.455  0.00  0.00     0.129 C 
ATOM      5  O1  <0> d          -1.141   4.387   3.235  0.00  0.00    -0.298 OA
ATOM      6  C5  <0> d          -0.750   3.111   1.275  0.00  0.00     0.009 C 
ATOM      7  C6  <0> d          -0.729   1.579   1.267  0.00  0.00     0.052 C 
ATOM      8  C7  <0> d          -2.164   1.050   1.278  0.00  0.00    -0.042 C 
ATOM      9  C9  <0> d          -0.017   1.092   2.459  0.00  0.00     0.069 C 
ATOM     10  N1  <0> d           0.532   0.716   3.380  0.00  0.00    -0.196 NA
ATOM     11  H5  <0> d          -3.337   3.269   3.517  0.00  0.00     0.044 H 
ATOM     12  H6  <0> d          -3.613   3.350   1.835  0.00  0.00     0.044 H 
ATOM     13  H7  <0> d           0.180   3.467   1.360  0.00  0.00     0.046 H 
ATOM     14  H8  <0> d          -1.197   3.476   0.350  0.00  0.00     0.046 H 
ATOM     15  H9  <0> d          -2.708   1.462   0.427  0.00  0.00     0.036 H 
ATOM     16  H10 <0> d          -2.150  -0.037   1.205  0.00  0.00     0.036 H 
ENDROOT
BRANCH   7  17
ATOM     17  C8  <0> d          -0.013   1.086   0.008  0.00  0.00    -0.057 C 
ATOM     18  H11 <0> d           0.002  -0.004   0.002  0.00  0.00     0.029 H 
ATOM     19  H12 <0> d           1.010   1.463   0.000  0.00  0.00     0.029 H 
ATOM     20  H13 <0> d          -0.540   1.447  -0.875  0.00  0.00     0.029 H 
ENDBRANCH   7  17
BRANCH   1  21
ATOM     21  C1  <0> d          -4.264   0.858   2.618  0.00  0.00    -0.072 C 
ATOM     22  H2  <0> d          -4.840   1.216   1.765  0.00  0.00     0.028 H 
ATOM     23  H3  <0> d          -4.191  -0.228   2.577  0.00  0.00     0.028 H 
ATOM     24  H4  <0> d          -4.760   1.155   3.542  0.00  0.00     0.028 H 
ENDBRANCH   1  21
TORSDOF 2
