REMARK  4 active torsions:
REMARK  status: ('A' for Active; 'I' for Inactive)
REMARK    1  A    between atoms: C1_1  and  C2_2 
REMARK    2  A    between atoms: C2_2  and  N1_3 
REMARK    3  A    between atoms: C3_4  and  N5_11 
REMARK    4  A    between atoms: C4_5  and  C5_8 
REMARK       I    between atoms: C5_8  and  N4_10 
ROOT
ATOM      1  N1  <0> d          -4.589   0.378   0.026  0.00  0.00    -0.234 N 
ATOM      2  C3  <0> d          -3.725   1.421   0.027  0.00  0.00     0.155 A 
ATOM      3  C4  <0> d          -2.449   0.873   0.018  0.00  0.00     0.192 A 
ATOM      4  N2  <0> d          -2.571  -0.468   0.006  0.00  0.00    -0.122 NA
ATOM      5  N3  <0> d          -3.816  -0.791   0.016  0.00  0.00    -0.064 NA
ENDROOT
BRANCH   1   6
ATOM      6  C2  <0> d          -6.051   0.457   0.033  0.00  0.00     0.017 C 
ATOM      7  H4  <0> d          -6.367   1.371   0.558  0.00  0.00     0.067 H 
ATOM      8  H5  <0> d          -6.464  -0.423   0.549  0.00  0.00     0.067 H 
BRANCH   6   9
ATOM      9  C1  <0> d          -6.568   0.492  -1.407  0.00  0.00    -0.059 C 
ATOM     10  H1  <0> d          -7.666   0.552  -1.401  0.00  0.00     0.029 H 
ATOM     11  H2  <0> d          -6.252  -0.421  -1.932  0.00  0.00     0.029 H 
ATOM     12  H3  <0> d          -6.155   1.372  -1.922  0.00  0.00     0.029 H 
ENDBRANCH   6   9
ENDBRANCH   1   6
BRANCH   2  13
ATOM     13  N5  <0> d          -4.048   2.762   0.036  0.00  0.00    -0.382 N 
ATOM     14  H8  <0> d          -3.251   3.520   0.037  0.00  0.00     0.157 HD
ATOM     15  H9  <0> d          -5.104   3.073   0.043  0.00  0.00     0.157 HD
ENDBRANCH   2  13
BRANCH   3  16
ATOM     16  C5  <0> d          -1.187   1.624   0.017  0.00  0.00     0.273 C 
ATOM     17  O1  <0> d          -1.204   2.841   0.023  0.00  0.00    -0.266 OA
ATOM     18  N4  <0> d          -0.011   0.966   0.007  0.00  0.00    -0.365 N 
ATOM     19  H6  <0> d           0.934   1.529   0.006  0.00  0.00     0.159 HD
ATOM     20  H7  <0> d           0.004  -0.134   0.001  0.00  0.00     0.159 HD
ENDBRANCH   3  16
TORSDOF 4
