REMARK  4 active torsions:
REMARK  status: ('A' for Active; 'I' for Inactive)
REMARK    1  A    between atoms: N1_6  and  C5_7 
REMARK    2  A    between atoms: C5_7  and  C6_8 
REMARK    3  A    between atoms: C7_9  and  C8_10 
REMARK    4  A    between atoms: C8_10  and  O2_11 
ROOT
ATOM      1  C1  <0> d           1.421   1.950  -0.001  0.00  0.00     0.134 C 
ATOM      2  C2  <0> d          -0.017   1.426   0.010  0.00  0.00     0.044 C 
ATOM      3  O1  <0> d           0.002  -0.004   0.002  0.00  0.00    -0.388 OA
ATOM      4  C3  <0> d           0.701  -0.577   1.111  0.00  0.00     0.044 C 
ATOM      5  C4  <0> d           2.147  -0.072   1.111  0.00  0.00     0.134 C 
ATOM      6  N1  <0> d           2.148   1.397   1.151  0.00  0.00     0.103 N 
ATOM      7  H1  <0> d           1.413   3.049   0.063  0.00  0.00     0.083 H 
ATOM      8  H2  <0> d           1.919   1.641  -0.932  0.00  0.00     0.083 H 
ATOM      9  H3  <0> d          -0.531   1.783   0.915  0.00  0.00     0.077 H 
ATOM     10  H4  <0> d          -0.548   1.792  -0.881  0.00  0.00     0.077 H 
ATOM     11  H5  <0> d           0.207  -0.280   2.048  0.00  0.00     0.077 H 
ATOM     12  H6  <0> d           0.693  -1.673   1.022  0.00  0.00     0.077 H 
ATOM     13  H7  <0> d           2.672  -0.466   1.994  0.00  0.00     0.083 H 
ATOM     14  H8  <0> d           2.655  -0.416   0.198  0.00  0.00     0.083 H 
ENDROOT
BRANCH   6  15
ATOM     15  C5  <0> d           3.519   1.922   1.210  0.00  0.00     0.167 C 
ATOM     16  H9  <0> d           3.956   1.695   2.193  0.00  0.00     0.099 H 
ATOM     17  H10 <0> d           4.125   1.452   0.422  0.00  0.00     0.099 H 
BRANCH  15  18
ATOM     18  C6  <0> d           3.495   3.380   1.008  0.00  0.00    -0.074 C 
ATOM     19  C7  <0> d           3.477   4.542   0.847  0.00  0.00    -0.079 C 
BRANCH  19  20
ATOM     20  C8  <0> d           3.454   6.000   0.645  0.00  0.00     0.071 C 
ATOM     21  H11 <0> d           3.017   6.227  -0.339  0.00  0.00     0.093 H 
ATOM     22  H12 <0> d           2.848   6.470   1.433  0.00  0.00     0.093 H 
BRANCH  20  23
ATOM     23  O2  <0> d           4.788   6.510   0.702  0.00  0.00    -0.389 OA
ATOM     24  H13 <0> d           4.971   7.587   0.572  0.00  0.00     0.210 HD
ENDBRANCH  20  23
ENDBRANCH  19  20
ENDBRANCH  15  18
ENDBRANCH   6  15
TORSDOF 4
