REMARK  1 active torsions:
REMARK  status: ('A' for Active; 'I' for Inactive)
REMARK    1  A    between atoms: C5_8  and  C6_9 
REMARK       I    between atoms: C6_9  and  N2_11 
ROOT
ATOM      1  C1  <0> d          -2.441  -0.547   0.011  0.00  0.00    -0.061 A 
ATOM      2  C2  <0> d          -3.624  -1.217   0.013  0.00  0.00    -0.016 A 
ATOM      3  C3  <0> d          -4.831  -0.493   0.022  0.00  0.00     0.245 A 
ATOM      4  O1  <0> d          -5.895  -1.089   0.024  0.00  0.00    -0.268 OA
ATOM      5  N1  <0> d          -4.820   0.853   0.029  0.00  0.00    -0.333 N 
ATOM      6  H1  <0> d          -5.768   1.411   0.032  0.00  0.00     0.168 HD
ATOM      7  C4  <0> d          -3.662   1.537   0.034  0.00  0.00    -0.004 A 
ATOM      8  C5  <0> d          -2.454   0.869   0.018  0.00  0.00     0.047 A 
ATOM      9  H2  <0> d          -1.506  -1.086   0.003  0.00  0.00     0.085 H 
ATOM     10  H3  <0> d          -3.638  -2.297   0.007  0.00  0.00     0.092 H 
ATOM     11  H4  <0> d          -3.677   2.617   0.044  0.00  0.00     0.113 H 
ENDROOT
BRANCH   8  12
ATOM     12  C6  <0> d          -1.187   1.624   0.017  0.00  0.00     0.250 C 
ATOM     13  O2  <0> d          -1.204   2.840   0.023  0.00  0.00    -0.268 OA
ATOM     14  N2  <0> d          -0.011   0.966   0.007  0.00  0.00    -0.366 N 
ATOM     15  H5  <0> d           0.934   1.529   0.006  0.00  0.00     0.159 HD
ATOM     16  H6  <0> d           0.004  -0.134   0.001  0.00  0.00     0.159 HD
ENDBRANCH   8  12
TORSDOF 1
