REMARK  5 active torsions:
REMARK  status: ('A' for Active; 'I' for Inactive)
REMARK    1  A    between atoms: C1_1  and  C2_2 
REMARK    2  A    between atoms: C2_2  and  C3_4 
REMARK    3  A    between atoms: C2_2  and  O1_7 
REMARK    4  A    between atoms: O1_7  and  C6_8 
REMARK    5  A    between atoms: C6_8  and  C7_10 
ROOT
ATOM      1  C2  <0> d          -0.829   3.102  -1.446  0.00  0.00     0.048 C 
ATOM      2  H1  <0> d          -0.482   3.829  -0.712  0.00  0.00     0.084 H 
ENDROOT
BRANCH   1   3
ATOM      3  C1  <0> d          -2.089   3.633  -2.133  0.00  0.00    -0.051 C 
ATOM      4  H2  <0> d          -2.436   2.906  -2.867  0.00  0.00     0.030 H 
ATOM      5  H3  <0> d          -2.867   3.797  -1.388  0.00  0.00     0.030 H 
ATOM      6  H4  <0> d          -1.860   4.574  -2.634  0.00  0.00     0.030 H 
ENDBRANCH   1   3
BRANCH   1   7
ATOM      7  C3  <0> d          -1.150   1.781  -0.743  0.00  0.00    -0.029 A 
ATOM      8  C5  <0> d          -1.136   1.773   0.788  0.00  0.00    -0.059 A 
ATOM      9  C4  <0> d          -0.013   1.086   0.008  0.00  0.00    -0.059 A 
ATOM     10  H8  <0> d          -1.859   1.135   1.295  0.00  0.00     0.033 H 
ATOM     11  H9  <0> d          -0.897   2.708   1.294  0.00  0.00     0.033 H 
ATOM     12  H6  <0> d           0.002  -0.004   0.002  0.00  0.00     0.033 H 
ATOM     13  H7  <0> d           0.964   1.569   0.001  0.00  0.00     0.033 H 
ATOM     14  H5  <0> d          -1.884   1.149  -1.243  0.00  0.00     0.043 H 
ENDBRANCH   1   7
BRANCH   1  15
ATOM     15  O1  <0> d           0.208   2.882  -2.438  0.00  0.00    -0.316 OA
BRANCH  15  16
ATOM     16  C6  <0> d           1.030   3.911  -2.698  0.00  0.00     0.255 C 
ATOM     17  O2  <0> d           0.888   4.960  -2.115  0.00  0.00    -0.266 OA
BRANCH  16  18
ATOM     18  C7  <0> d           2.130   3.758  -3.716  0.00  0.00     0.004 C 
ATOM     19  H10 <0> d           1.696   3.516  -4.686  0.00  0.00     0.041 H 
ATOM     20  H11 <0> d           2.689   4.691  -3.790  0.00  0.00     0.041 H 
ATOM     21  H12 <0> d           2.801   2.956  -3.408  0.00  0.00     0.041 H 
ENDBRANCH  16  18
ENDBRANCH  15  16
ENDBRANCH   1  15
TORSDOF 5
