REMARK  1 active torsions:
REMARK  status: ('A' for Active; 'I' for Inactive)
REMARK    1  A    between atoms: C4_4  and  C7_7 
ROOT
ATOM      1  C1  <0> d           3.050  -4.200  -0.047  0.00  0.00    -0.083 A 
ATOM      2  C2  <0> d           3.870  -3.085  -0.050  0.00  0.00    -0.082 A 
ATOM      3  C3  <0> d           3.319  -1.820  -0.039  0.00  0.00    -0.070 A 
ATOM      4  C4  <0> d           1.932  -1.667  -0.025  0.00  0.00    -0.000 A 
ATOM      5  C5  <0> d           1.111  -2.795  -0.017  0.00  0.00    -0.070 A 
ATOM      6  C6  <0> d           1.674  -4.054  -0.033  0.00  0.00    -0.082 A 
ATOM      7  H1  <0> d           3.486  -5.188  -0.057  0.00  0.00     0.083 H 
ATOM      8  H2  <0> d           4.943  -3.205  -0.061  0.00  0.00     0.083 H 
ATOM      9  H3  <0> d           3.960  -0.951  -0.042  0.00  0.00     0.084 H 
ATOM     10  H4  <0> d           0.037  -2.683  -0.002  0.00  0.00     0.084 H 
ATOM     11  H5  <0> d           1.040  -4.929  -0.032  0.00  0.00     0.083 H 
ENDROOT
BRANCH   4  12
ATOM     12  C7  <0> d           1.335  -0.314  -0.012  0.00  0.00     0.113 A 
ATOM     13  O1  <0> d           1.992   0.859  -0.012  0.00  0.00    -0.213 OA
ATOM     14  N1  <0> d           1.226   1.795  -0.000  0.00  0.00    -0.140 NA
ATOM     15  C9  <0> d          -0.017   1.406   0.010  0.00  0.00     0.032 A 
ATOM     16  C8  <0> d           0.002  -0.004   0.002  0.00  0.00    -0.028 A 
ATOM     17  H7  <0> d          -0.892   2.039   0.018  0.00  0.00     0.118 H 
ATOM     18  H6  <0> d          -0.839  -0.681   0.006  0.00  0.00     0.090 H 
ENDBRANCH   4  12
TORSDOF 1
