REMARK  4 active torsions:
REMARK  status: ('A' for Active; 'I' for Inactive)
REMARK    1  A    between atoms: C1_1  and  C2_2 
REMARK    2  A    between atoms: C2_2  and  C3_3 
REMARK       I    between atoms: N1_8  and  C7_9 
REMARK    3  A    between atoms: C7_9  and  C8_11 
REMARK    4  A    between atoms: C8_11  and  C9_12 
ROOT
ATOM      1  C3  <0> d           0.681  -0.621   1.224  0.00  0.00     0.014 C 
ATOM      2  H1  <0> d           1.677  -0.194   1.347  0.00  0.00     0.072 H 
ATOM      3  C4  <0> d           0.785  -2.151   1.052  0.00  0.00    -0.044 C 
ATOM      4  C5  <0> d           0.506  -2.681   2.484  0.00  0.00    -0.048 C 
ATOM      5  C6  <0> d          -0.547  -1.665   2.992  0.00  0.00    -0.002 C 
ATOM      6  N1  <0> d          -0.123  -0.367   2.428  0.00  0.00    -0.347 N 
ATOM      7  C7  <0> d          -0.424   0.847   2.930  0.00  0.00     0.219 C 
ATOM      8  O1  <0> d          -0.095   1.849   2.332  0.00  0.00    -0.273 OA
ATOM      9  H7  <0> d           0.030  -2.512   0.354  0.00  0.00     0.036 H 
ATOM     10  H8  <0> d           1.784  -2.436   0.723  0.00  0.00     0.036 H 
ATOM     11  H9  <0> d           0.094  -3.689   2.454  0.00  0.00     0.035 H 
ATOM     12  H10 <0> d           1.408  -2.648   3.095  0.00  0.00     0.035 H 
ATOM     13  H11 <0> d          -1.539  -1.933   2.629  0.00  0.00     0.064 H 
ATOM     14  H12 <0> d          -0.539  -1.624   4.082  0.00  0.00     0.064 H 
ENDROOT
BRANCH   1  15
ATOM     15  C2  <0> d          -0.002  -0.005   0.002  0.00  0.00    -0.049 C 
ATOM     16  H5  <0> d          -0.193   1.052   0.186  0.00  0.00     0.035 H 
ATOM     17  H6  <0> d          -0.946  -0.518  -0.184  0.00  0.00     0.035 H 
BRANCH  15  18
ATOM     18  C1  <0> d           0.908  -0.153  -1.220  0.00  0.00    -0.075 C 
ATOM     19  H2  <0> d           1.167  -1.203  -1.354  0.00  0.00     0.027 H 
ATOM     20  H3  <0> d           0.387   0.209  -2.106  0.00  0.00     0.027 H 
ATOM     21  H4  <0> d           1.817   0.430  -1.069  0.00  0.00     0.027 H 
ENDBRANCH  15  18
ENDBRANCH   1  15
BRANCH   7  22
ATOM     22  C8  <0> d          -1.167   0.959   4.236  0.00  0.00     0.006 C 
ATOM     23  H13 <0> d          -2.135   0.465   4.147  0.00  0.00     0.046 H 
ATOM     24  H14 <0> d          -0.588   0.483   5.027  0.00  0.00     0.046 H 
BRANCH  22  25
ATOM     25  C9  <0> d          -1.379   2.436   4.577  0.00  0.00    -0.068 C 
ATOM     26  H15 <0> d          -0.412   2.930   4.667  0.00  0.00     0.028 H 
ATOM     27  H16 <0> d          -1.959   2.912   3.787  0.00  0.00     0.028 H 
ATOM     28  H17 <0> d          -1.917   2.517   5.522  0.00  0.00     0.028 H 
ENDBRANCH  22  25
ENDBRANCH   7  22
TORSDOF 4
