REMARK  3 active torsions:
REMARK  status: ('A' for Active; 'I' for Inactive)
REMARK    1  A    between atoms: C3_3  and  N2_10 
REMARK    2  A    between atoms: C4_5  and  C6_8 
REMARK    3  A    between atoms: C6_8  and  O1_9 
ROOT
ATOM      1  C1  <0> d          -0.017   1.385   0.010  0.00  0.00    -0.056 A 
ATOM      2  C2  <0> d           1.190   2.062   0.002  0.00  0.00    -0.037 A 
ATOM      3  C3  <0> d           2.374   1.333  -0.013  0.00  0.00     0.121 A 
ATOM      4  N1  <0> d           2.351   0.009  -0.020  0.00  0.00    -0.232 NA
ATOM      5  C4  <0> d           1.216  -0.664  -0.013  0.00  0.00     0.082 A 
ATOM      6  C5  <0> d           0.002  -0.004   0.002  0.00  0.00     0.061 A 
ATOM      7 Cl1  <0> d          -1.484  -0.901   0.012  0.00  0.00    -0.082 Cl
ATOM      8  H1  <0> d          -0.952   1.925   0.026  0.00  0.00     0.086 H 
ATOM      9  H2  <0> d           1.212   3.141   0.007  0.00  0.00     0.089 H 
ENDROOT
BRANCH   5  10
ATOM     10  C6  <0> d           1.244  -2.171  -0.021  0.00  0.00     0.058 C 
ATOM     11  H3  <0> d           0.356  -2.547  -0.529  0.00  0.00     0.083 H 
ATOM     12  H4  <0> d           2.135  -2.515  -0.546  0.00  0.00     0.083 H 
BRANCH  10  13
ATOM     13  O1  <0> d           1.265  -2.654   1.323  0.00  0.00    -0.395 OA
ATOM     14  H5  <0> d           1.284  -3.618   1.394  0.00  0.00     0.209 HD
ENDBRANCH  10  13
ENDBRANCH   5  10
BRANCH   3  15
ATOM     15  N2  <0> d           3.594   2.000  -0.022  0.00  0.00    -0.384 N 
ATOM     16  H6  <0> d           3.616   2.970  -0.017  0.00  0.00     0.157 HD
ATOM     17  H7  <0> d           4.423   1.496  -0.033  0.00  0.00     0.157 HD
ENDBRANCH   3  15
TORSDOF 3
