REMARK  2 active torsions:
REMARK  status: ('A' for Active; 'I' for Inactive)
REMARK    1  A    between atoms: C1_1  and  C2_2 
REMARK    2  A    between atoms: C3_4  and  C6_10 
ROOT
ATOM      1  C2  <0> d           1.297  -0.460  -0.482  0.00  0.00     0.042 C 
ATOM      2  H1  <0> d           1.301  -0.972  -1.445  0.00  0.00     0.056 H 
ATOM      3  C3  <0> d          -0.148  -0.100  -0.070  0.00  0.00     0.063 C 
ATOM      4  H2  <0> d          -0.857  -0.420  -0.834  0.00  0.00     0.061 H 
ATOM      5  C4  <0> d          -0.109   1.440   0.026  0.00  0.00     0.042 C 
ATOM      6  O1  <0> d           1.308   1.779   0.118  0.00  0.00    -0.320 OA
ATOM      7  C5  <0> d           2.008   0.874  -0.590  0.00  0.00     0.263 C 
ATOM      8  O2  <0> d           3.026   1.087  -1.204  0.00  0.00    -0.265 OA
ATOM      9  H6  <0> d          -0.548   1.887  -0.866  0.00  0.00     0.076 H 
ATOM     10  H7  <0> d          -0.637   1.777   0.918  0.00  0.00     0.076 H 
ENDROOT
BRANCH   1  11
ATOM     11  C1  <0> d           1.956  -1.331   0.589  0.00  0.00    -0.063 C 
ATOM     12  H3  <0> d           1.364  -2.234   0.738  0.00  0.00     0.028 H 
ATOM     13  H4  <0> d           2.961  -1.604   0.268  0.00  0.00     0.028 H 
ATOM     14  H5  <0> d           2.012  -0.775   1.525  0.00  0.00     0.028 H 
ENDBRANCH   1  11
BRANCH   3  15
ATOM     15  C6  <0> d          -0.488  -0.709   1.265  0.00  0.00     0.180 C 
ATOM     16  O3  <0> d          -0.193  -0.132   2.285  0.00  0.00    -0.648 OA
ATOM     17  O4  <0> d          -1.120  -1.892   1.322  0.00  0.00    -0.648 OA
ENDBRANCH   3  15
TORSDOF 2
