REMARK  3 active torsions:
REMARK  status: ('A' for Active; 'I' for Inactive)
REMARK    1  A    between atoms: C1_1  and  C2_2 
REMARK    2  A    between atoms: C5_5  and  O1_8 
REMARK    3  A    between atoms: O1_8  and  C7_9 
ROOT
ATOM      1  C2  <0> d           0.977   0.411   4.735  0.00  0.00     0.030 A 
ATOM      2  C3  <0> d          -0.162   1.194   4.764  0.00  0.00    -0.057 A 
ATOM      3  C4  <0> d          -0.742   1.591   3.570  0.00  0.00    -0.048 A 
ATOM      4  C5  <0> d          -0.149   1.182   2.380  0.00  0.00     0.085 A 
ATOM      5  C6  <0> d           0.991   0.393   2.431  0.00  0.00     0.034 A 
ATOM      6  N1  <0> d           1.514   0.041   3.589  0.00  0.00    -0.263 NA
ATOM      7  H4  <0> d          -0.595   1.493   5.708  0.00  0.00     0.086 H 
ATOM      8  H5  <0> d          -1.632   2.202   3.564  0.00  0.00     0.087 H 
ATOM      9  H6  <0> d           1.456   0.066   1.513  0.00  0.00     0.119 H 
ENDROOT
BRANCH   4  10
ATOM     10  O1  <0> d          -0.682   1.547   1.184  0.00  0.00    -0.355 OA
BRANCH  10  11
ATOM     11  C7  <0> d          -0.013   1.086   0.008  0.00  0.00     0.010 C 
ATOM     12  H7  <0> d          -0.545   1.450  -0.883  0.00  0.00     0.066 H 
ATOM     13  H8  <0> d           0.002  -0.014   0.002  0.00  0.00     0.066 H 
ATOM     14  H9  <0> d           1.019   1.466   0.000  0.00  0.00     0.066 H 
ENDBRANCH  10  11
ENDBRANCH   4  10
BRANCH   1  15
ATOM     15  C1  <0> d           1.614  -0.024   6.029  0.00  0.00    -0.035 C 
ATOM     16  H1  <0> d           1.035   0.375   6.875  0.00  0.00     0.035 H 
ATOM     17  H2  <0> d           2.645   0.358   6.077  0.00  0.00     0.035 H 
ATOM     18  H3  <0> d           1.628  -1.123   6.080  0.00  0.00     0.035 H 
ENDBRANCH   1  15
TORSDOF 3
