REMARK  4 active torsions:
REMARK  status: ('A' for Active; 'I' for Inactive)
REMARK    1  A    between atoms: C1_1  and  C2_2 
REMARK    2  A    between atoms: C2_2  and  C3_3 
REMARK    3  A    between atoms: C2_2  and  N1_4 
REMARK    4  A    between atoms: N1_4  and  C4_5 
ROOT
ATOM      1  N1  <0> d          -1.372  -0.511   0.012  0.00  0.00    -0.386 N 
ATOM      2  H8  <0> d          -2.087   0.033   0.377  0.00  0.00     0.160 HD
ENDROOT
BRANCH   1   3
ATOM      3  C2  <0> d           0.002  -0.004   0.002  0.00  0.00     0.003 C 
ATOM      4  H4  <0> d           0.512  -0.356  -0.895  0.00  0.00     0.071 H 
BRANCH   3   5
ATOM      5  C1  <0> d          -0.019   1.526   0.010  0.00  0.00    -0.058 C 
ATOM      6  H1  <0> d           1.004   1.903   0.003  0.00  0.00     0.030 H 
ATOM      7  H2  <0> d          -0.546   1.887  -0.873  0.00  0.00     0.030 H 
ATOM      8  H3  <0> d          -0.529   1.877   0.907  0.00  0.00     0.030 H 
ENDBRANCH   3   5
BRANCH   3   9
ATOM      9  C3  <0> d           0.742  -0.511   1.242  0.00  0.00    -0.058 C 
ATOM     10  H5  <0> d           0.232  -0.159   2.138  0.00  0.00     0.030 H 
ATOM     11  H6  <0> d           0.757  -1.601   1.236  0.00  0.00     0.030 H 
ATOM     12  H7  <0> d           1.765  -0.134   1.234  0.00  0.00     0.030 H 
ENDBRANCH   3   9
ENDBRANCH   1   3
BRANCH   1  13
ATOM     13  C4  <0> d          -1.653  -1.779  -0.503  0.00  0.00     0.028 A 
ATOM     14  C9  <0> d          -2.956  -2.261  -0.494  0.00  0.00    -0.058 A 
ATOM     15  C8  <0> d          -3.231  -3.513  -1.009  0.00  0.00    -0.081 A 
ATOM     16  H13 <0> d          -3.753  -1.656  -0.088  0.00  0.00     0.086 H 
ATOM     17  C7  <0> d          -2.209  -4.290  -1.524  0.00  0.00    -0.083 A 
ATOM     18  H12 <0> d          -4.244  -3.886  -1.006  0.00  0.00     0.083 H 
ATOM     19  C6  <0> d          -0.910  -3.815  -1.529  0.00  0.00    -0.081 A 
ATOM     20  H11 <0> d          -2.426  -5.270  -1.922  0.00  0.00     0.083 H 
ATOM     21  C5  <0> d          -0.629  -2.562  -1.020  0.00  0.00    -0.058 A 
ATOM     22  H10 <0> d          -0.115  -4.425  -1.931  0.00  0.00     0.083 H 
ATOM     23  H9  <0> d           0.385  -2.192  -1.026  0.00  0.00     0.086 H 
ENDBRANCH   1  13
TORSDOF 4
