REMARK  1 active torsions:
REMARK  status: ('A' for Active; 'I' for Inactive)
REMARK    1  A    between atoms: C4_5  and  N2_7 
ROOT
ATOM      1  C1  <0> d           2.375   1.361  -0.013  0.00  0.00    -0.078 A 
ATOM      2  C2  <0> d           2.350  -0.026  -0.020  0.00  0.00    -0.066 A 
ATOM      3  C3  <0> d           1.134  -0.681  -0.013  0.00  0.00     0.004 A 
ATOM      4  N1  <0> d           0.002  -0.004   0.002  0.00  0.00    -0.243 NA
ATOM      5  C4  <0> d          -0.016   1.319   0.009  0.00  0.00     0.134 A 
ATOM      6  C5  <0> d           1.170   2.043   0.002  0.00  0.00    -0.038 A 
ATOM      7  H1  <0> d           3.312   1.897  -0.018  0.00  0.00     0.083 H 
ATOM      8  H2  <0> d           3.272  -0.588  -0.031  0.00  0.00     0.085 H 
ATOM      9  H3  <0> d           1.110  -1.761  -0.018  0.00  0.00     0.114 H 
ATOM     10  H4  <0> d           1.152   3.123   0.007  0.00  0.00     0.089 H 
ENDROOT
BRANCH   5  11
ATOM     11  N2  <0> d          -1.240   1.995   0.019  0.00  0.00    -0.300 N 
ATOM     12  C8  <0> d          -1.419   3.342   0.033  0.00  0.00     0.071 A 
ATOM     13  N3  <0> d          -2.700   3.591   0.035  0.00  0.00    -0.254 NA
ATOM     14  H7  <0> d          -0.633   4.083   0.039  0.00  0.00     0.144 H 
ATOM     15  C7  <0> d          -3.378   2.433   0.032  0.00  0.00     0.019 A 
ATOM     16  C6  <0> d          -2.487   1.424   0.021  0.00  0.00     0.004 A 
ATOM     17  H6  <0> d          -4.453   2.329   0.036  0.00  0.00     0.117 H 
ATOM     18  H5  <0> d          -2.711   0.367   0.016  0.00  0.00     0.114 H 
ENDBRANCH   5  11
TORSDOF 1
