REMARK  2 active torsions:
REMARK  status: ('A' for Active; 'I' for Inactive)
REMARK    1  A    between atoms: C9_9  and  O1_12 
REMARK    2  A    between atoms: C10_10  and  N1_11 
ROOT
ATOM      1  C1  <0> d           4.770   1.488  -0.036  0.00  0.00    -0.082 A 
ATOM      2  C2  <0> d           4.803   0.095  -0.044  0.00  0.00    -0.082 A 
ATOM      3  C3  <0> d           3.652  -0.633  -0.037  0.00  0.00    -0.070 A 
ATOM      4  C4  <0> d           2.412   0.028  -0.021  0.00  0.00     0.003 A 
ATOM      5  C5  <0> d           2.378   1.445  -0.013  0.00  0.00    -0.024 A 
ATOM      6  C6  <0> d           3.588   2.162  -0.021  0.00  0.00    -0.072 A 
ATOM      7  C7  <0> d           1.141   2.108   0.003  0.00  0.00    -0.070 A 
ATOM      8  C8  <0> d          -0.017   1.391   0.010  0.00  0.00    -0.048 A 
ATOM      9  C9  <0> d           0.002  -0.004   0.002  0.00  0.00     0.092 A 
ATOM     10  C10 <0> d           1.201  -0.693  -0.013  0.00  0.00     0.070 A 
ATOM     11  H1  <0> d           5.698   2.041  -0.041  0.00  0.00     0.083 H 
ATOM     12  H2  <0> d           5.754  -0.416  -0.055  0.00  0.00     0.083 H 
ATOM     13  H3  <0> d           3.692  -1.712  -0.043  0.00  0.00     0.084 H 
ATOM     14  H4  <0> d           3.579   3.241  -0.015  0.00  0.00     0.084 H 
ATOM     15  H5  <0> d           1.107   3.188   0.009  0.00  0.00     0.085 H 
ATOM     16  H6  <0> d          -0.964   1.909   0.017  0.00  0.00     0.087 H 
ENDROOT
BRANCH  10  17
ATOM     17  N1  <0> d           1.211  -2.090  -0.020  0.00  0.00    -0.396 N 
ATOM     18  H7  <0> d           0.375  -2.582  -0.015  0.00  0.00     0.156 HD
ATOM     19  H8  <0> d           2.055  -2.569  -0.031  0.00  0.00     0.156 HD
ENDBRANCH  10  17
BRANCH   9  20
ATOM     20  O1  <0> d          -1.171  -0.694   0.010  0.00  0.00    -0.358 OA
ATOM     21  H9  <0> d          -1.519  -0.888  -0.871  0.00  0.00     0.217 HD
ENDBRANCH   9  20
TORSDOF 2
