REMARK  5 active torsions:
REMARK  status: ('A' for Active; 'I' for Inactive)
REMARK    1  A    between atoms: C1_1  and  C2_2 
REMARK    2  A    between atoms: C2_2  and  N1_3 
REMARK    3  A    between atoms: N1_3  and  C3_4 
REMARK    4  A    between atoms: C4_5  and  O1_10 
REMARK    5  A    between atoms: O1_10  and  C8_11 
ROOT
ATOM      1  C3  <0> d          -0.848   3.364   1.445  0.00  0.00     0.156 A 
ATOM      2  C4  <0> d          -1.502   3.808   2.595  0.00  0.00     0.113 A 
ATOM      3  C5  <0> d          -1.637   5.172   2.808  0.00  0.00    -0.046 A 
ATOM      4  C6  <0> d          -1.112   6.044   1.864  0.00  0.00    -0.063 A 
ATOM      5  C7  <0> d          -0.477   5.534   0.750  0.00  0.00     0.005 A 
ATOM      6  N2  <0> d          -0.359   4.231   0.573  0.00  0.00    -0.241 NA
ATOM      7  H7  <0> d          -2.137   5.547   3.689  0.00  0.00     0.088 H 
ATOM      8  H8  <0> d          -1.200   7.112   2.000  0.00  0.00     0.085 H 
ATOM      9  H9  <0> d          -0.068   6.210   0.014  0.00  0.00     0.114 H 
ENDROOT
BRANCH   1  10
ATOM     10  N1  <0> d          -0.704   1.998   1.216  0.00  0.00    -0.373 N 
ATOM     11  H6  <0> d          -1.058   1.359   1.854  0.00  0.00     0.161 HD
BRANCH  10  12
ATOM     12  C2  <0> d          -0.019   1.526   0.010  0.00  0.00    -0.009 C 
ATOM     13  H4  <0> d           1.004   1.903   0.003  0.00  0.00     0.063 H 
ATOM     14  H5  <0> d          -0.546   1.887  -0.873  0.00  0.00     0.063 H 
BRANCH  12  15
ATOM     15  C1  <0> d           0.002  -0.004   0.002  0.00  0.00    -0.061 C 
ATOM     16  H1  <0> d           0.512  -0.356  -0.895  0.00  0.00     0.029 H 
ATOM     17  H2  <0> d           0.529  -0.365   0.885  0.00  0.00     0.029 H 
ATOM     18  H3  <0> d          -1.020  -0.381   0.010  0.00  0.00     0.029 H 
ENDBRANCH  12  15
ENDBRANCH  10  12
ENDBRANCH   1  10
BRANCH   2  19
ATOM     19  O1  <0> d          -2.001   2.917   3.493  0.00  0.00    -0.352 OA
BRANCH  19  20
ATOM     20  C8  <0> d          -2.657   3.453   4.644  0.00  0.00     0.011 C 
ATOM     21  H10 <0> d          -1.957   4.073   5.205  0.00  0.00     0.067 H 
ATOM     22  H11 <0> d          -3.507   4.058   4.329  0.00  0.00     0.067 H 
ATOM     23  H12 <0> d          -3.006   2.637   5.276  0.00  0.00     0.067 H 
ENDBRANCH  19  20
ENDBRANCH   2  19
TORSDOF 5
