REMARK  6 active torsions:
REMARK  status: ('A' for Active; 'I' for Inactive)
REMARK    1  A    between atoms: C1_1  and  N1_2 
REMARK    2  A    between atoms: N1_2  and  C2_3 
REMARK    3  A    between atoms: N1_2  and  S1_4 
REMARK    4  A    between atoms: S1_4  and  N2_7 
REMARK    5  A    between atoms: N2_7  and  C3_8 
REMARK    6  A    between atoms: N2_7  and  C4_9 
ROOT
ATOM      1  S1  <0> d          -0.017   1.417   0.010  0.00  0.00     0.317 S 
ATOM      2  O1  <0> d           0.002  -0.004   0.002  0.00  0.00    -0.183 OA
ATOM      3  O2  <0> d           1.172   2.195   0.003  0.00  0.00    -0.183 OA
ENDROOT
BRANCH   1   4
ATOM      4  N1  <0> d          -0.897   1.885  -1.312  0.00  0.00    -0.303 N 
BRANCH   4   5
ATOM      5  C1  <0> d          -0.691   3.213  -1.897  0.00  0.00    -0.008 C 
ATOM      6  H1  <0> d           0.085   3.157  -2.660  0.00  0.00     0.057 H 
ATOM      7  H2  <0> d          -1.621   3.560  -2.348  0.00  0.00     0.057 H 
ATOM      8  H3  <0> d          -0.383   3.909  -1.117  0.00  0.00     0.057 H 
ENDBRANCH   4   5
BRANCH   4   9
ATOM      9  C2  <0> d          -1.883   0.973  -1.897  0.00  0.00    -0.008 C 
ATOM     10  H4  <0> d          -2.851   1.131  -1.424  0.00  0.00     0.057 H 
ATOM     11  H5  <0> d          -1.966   1.165  -2.967  0.00  0.00     0.057 H 
ATOM     12  H6  <0> d          -1.564  -0.057  -1.737  0.00  0.00     0.057 H 
ENDBRANCH   4   9
ENDBRANCH   1   4
BRANCH   1  13
ATOM     13  N2  <0> d          -0.872   1.871   1.353  0.00  0.00    -0.303 N 
BRANCH  13  14
ATOM     14  C3  <0> d          -1.846   0.952   1.947  0.00  0.00    -0.008 C 
ATOM     15  H7  <0> d          -1.351   0.332   2.695  0.00  0.00     0.057 H 
ATOM     16  H8  <0> d          -2.644   1.524   2.420  0.00  0.00     0.057 H 
ATOM     17  H9  <0> d          -2.267   0.316   1.169  0.00  0.00     0.057 H 
ENDBRANCH  13  14
BRANCH  13  18
ATOM     18  C4  <0> d          -0.654   3.192   1.948  0.00  0.00    -0.008 C 
ATOM     19  H10 <0> d           0.101   3.729   1.374  0.00  0.00     0.057 H 
ATOM     20  H11 <0> d          -1.588   3.754   1.936  0.00  0.00     0.057 H 
ATOM     21  H12 <0> d          -0.313   3.076   2.977  0.00  0.00     0.057 H 
ENDBRANCH  13  18
ENDBRANCH   1  13
TORSDOF 6
