REMARK  4 active torsions:
REMARK  status: ('A' for Active; 'I' for Inactive)
REMARK    1  A    between atoms: C1_1  and  C2_2 
REMARK    2  A    between atoms: C6_7  and  C9_12 
REMARK    3  A    between atoms: C7_9  and  C8_10 
REMARK    4  A    between atoms: C8_10  and  O1_11 
ROOT
ATOM      1  C2  <0> d           2.261   1.468   1.250  0.00  0.00    -0.052 C 
ATOM      2  H1  <0> d           1.786   1.643   2.226  0.00  0.00     0.040 H 
ATOM      3  C3  <0> d           1.568   2.322   0.186  0.00  0.00    -0.062 C 
ATOM      4  C4  <0> d           0.088   1.941   0.110  0.00  0.00    -0.064 C 
ATOM      5  C5  <0> d          -0.039   0.463  -0.261  0.00  0.00    -0.062 C 
ATOM      6  C6  <0> d           0.653  -0.392   0.803  0.00  0.00    -0.052 C 
ATOM      7  H2  <0> d           0.179  -0.216   1.780  0.00  0.00     0.040 H 
ATOM      8  C7  <0> d           2.133  -0.011   0.879  0.00  0.00    -0.027 C 
ATOM      9  H6  <0> d           1.660   3.385   0.452  0.00  0.00     0.033 H 
ATOM     10  H7  <0> d           2.043   2.147  -0.791  0.00  0.00     0.033 H 
ATOM     11  H8  <0> d          -0.386   2.117   1.087  0.00  0.00     0.033 H 
ATOM     12  H9  <0> d          -0.409   2.555  -0.655  0.00  0.00     0.033 H 
ATOM     13  H10 <0> d          -1.103   0.189  -0.315  0.00  0.00     0.033 H 
ATOM     14  H11 <0> d           0.435   0.287  -1.238  0.00  0.00     0.033 H 
ATOM     15  H12 <0> d           2.607  -0.187  -0.098  0.00  0.00     0.044 H 
ENDROOT
BRANCH   8  16
ATOM     16  C8  <0> d           2.825  -0.865   1.943  0.00  0.00     0.021 C 
ATOM     17  H13 <0> d           2.434  -0.602   2.936  0.00  0.00     0.074 H 
ATOM     18  H14 <0> d           2.631  -1.929   1.742  0.00  0.00     0.074 H 
BRANCH  16  19
ATOM     19  O1  <0> d           4.233  -0.623   1.906  0.00  0.00    -0.400 OA
ATOM     20  H15 <0> d           4.901  -1.151   2.603  0.00  0.00     0.209 HD
ENDBRANCH  16  19
ENDBRANCH   8  16
BRANCH   1  21
ATOM     21  C1  <0> d           3.741   1.848   1.325  0.00  0.00    -0.072 C 
ATOM     22  H3  <0> d           3.833   2.912   1.592  0.00  0.00     0.028 H 
ATOM     23  H4  <0> d           4.215   1.673   0.348  0.00  0.00     0.028 H 
ATOM     24  H5  <0> d           4.239   1.234   2.090  0.00  0.00     0.028 H 
ENDBRANCH   1  21
BRANCH   6  25
ATOM     25  C9  <0> d           0.525  -1.871   0.432  0.00  0.00    -0.072 C 
ATOM     26  H16 <0> d           1.023  -2.485   1.197  0.00  0.00     0.028 H 
ATOM     27  H17 <0> d           0.999  -2.046  -0.545  0.00  0.00     0.028 H 
ATOM     28  H18 <0> d          -0.539  -2.144   0.378  0.00  0.00     0.028 H 
ENDBRANCH   6  25
TORSDOF 4
