REMARK  4 active torsions:
REMARK  status: ('A' for Active; 'I' for Inactive)
REMARK    1  A    between atoms: C6_8  and  C9_14 
REMARK    2  A    between atoms: C7_10  and  C8_12 
REMARK    3  A    between atoms: C8_12  and  O1_13 
REMARK    4  A    between atoms: C9_14  and  O2_15 
ROOT
ATOM      1  C1  <0> d          -0.011   1.507   0.004  0.00  0.00    -0.061 C 
ATOM      2  C2  <0> d           1.482   1.910  -0.003  0.00  0.00    -0.061 C 
ATOM      3  C3  <0> d           2.254   0.558  -0.090  0.00  0.00    -0.048 C 
ATOM      4  H1  <0> d           3.297   0.584   0.227  0.00  0.00     0.040 H 
ATOM      5  C4  <0> d           1.301  -0.375   0.738  0.00  0.00    -0.058 C 
ATOM      6  C5  <0> d           0.000  -0.050  -0.079  0.00  0.00    -0.048 C 
ATOM      7  H2  <0> d          -0.911  -0.551   0.247  0.00  0.00     0.040 H 
ATOM      8  C6  <0> d           0.485  -0.360  -1.528  0.00  0.00    -0.024 C 
ATOM      9  H3  <0> d          -0.072   0.235  -2.251  0.00  0.00     0.044 H 
ATOM     10  C7  <0> d           1.995   0.053  -1.542  0.00  0.00    -0.024 C 
ATOM     11  H4  <0> d           2.181   0.851  -2.261  0.00  0.00     0.044 H 
ATOM     12  H5  <0> d          -0.489   1.835   0.927  0.00  0.00     0.033 H 
ATOM     13  H6  <0> d          -0.523   1.930  -0.861  0.00  0.00     0.033 H 
ATOM     14  H7  <0> d           1.703   2.530  -0.871  0.00  0.00     0.033 H 
ATOM     15  H8  <0> d           1.738   2.435   0.917  0.00  0.00     0.033 H 
ATOM     16  H9  <0> d           1.583  -1.424   0.656  0.00  0.00     0.034 H 
ATOM     17  H10 <0> d           1.220  -0.058   1.778  0.00  0.00     0.034 H 
ENDROOT
BRANCH   8  18
ATOM     18  C9  <0> d           0.331  -1.851  -1.835  0.00  0.00     0.021 C 
ATOM     19  H14 <0> d           1.008  -2.424  -1.201  0.00  0.00     0.074 H 
ATOM     20  H15 <0> d          -0.696  -2.158  -1.640  0.00  0.00     0.074 H 
BRANCH  18  21
ATOM     21  O2  <0> d           0.647  -2.091  -3.208  0.00  0.00    -0.400 OA
ATOM     22  H16 <0> d           0.571  -3.017  -3.473  0.00  0.00     0.209 HD
ENDBRANCH  18  21
ENDBRANCH   8  18
BRANCH  10  23
ATOM     23  C8  <0> d           2.877  -1.159  -1.850  0.00  0.00     0.021 C 
ATOM     24  H11 <0> d           2.704  -1.934  -1.103  0.00  0.00     0.074 H 
ATOM     25  H12 <0> d           2.629  -1.547  -2.838  0.00  0.00     0.074 H 
BRANCH  23  26
ATOM     26  O1  <0> d           4.251  -0.769  -1.822  0.00  0.00    -0.400 OA
ATOM     27  H13 <0> d           4.868  -1.489  -2.009  0.00  0.00     0.209 HD
ENDBRANCH  23  26
ENDBRANCH  10  23
TORSDOF 4
