REMARK  4 active torsions:
REMARK  status: ('A' for Active; 'I' for Inactive)
REMARK    1  A    between atoms: C1_1  and  C2_2 
REMARK    2  A    between atoms: C2_2  and  C3_3 
REMARK    3  A    between atoms: C2_2  and  C4_4 
REMARK    4  A    between atoms: C6_9  and  N2_11 
ROOT
ATOM      1  C4  <0> d          -1.433  -0.534   0.013  0.00  0.00     0.130 A 
ATOM      2  H1  <0> d          -1.981  -0.172  -0.858  0.00  0.00     0.100 H 
ATOM      3  C5  <0> d          -1.443  -2.049   0.058  0.00  0.00     0.276 A 
ATOM      4  O1  <0> d          -0.983  -2.812  -0.768  0.00  0.00    -0.268 OA
ATOM      5  N1  <0> d          -2.062  -2.367   1.195  0.00  0.00    -0.171 NA
ATOM      6  C6  <0> d          -2.436  -1.295   1.857  0.00  0.00     0.243 A 
ATOM      7  O2  <0> d          -2.104  -0.153   1.226  0.00  0.00    -0.305 OA
ENDROOT
BRANCH   1   8
ATOM      8  C2  <0> d           0.002  -0.004   0.002  0.00  0.00    -0.027 C 
ATOM      9  H5  <0> d           0.512  -0.356  -0.895  0.00  0.00     0.043 H 
BRANCH   8  10
ATOM     10  C1  <0> d          -0.019   1.526   0.010  0.00  0.00    -0.070 C 
ATOM     11  H2  <0> d           1.004   1.903   0.003  0.00  0.00     0.028 H 
ATOM     12  H3  <0> d          -0.546   1.887  -0.873  0.00  0.00     0.028 H 
ATOM     13  H4  <0> d          -0.529   1.877   0.907  0.00  0.00     0.028 H 
ENDBRANCH   8  10
BRANCH   8  14
ATOM     14  C3  <0> d           0.742  -0.511   1.242  0.00  0.00    -0.070 C 
ATOM     15  H6  <0> d           0.232  -0.159   2.138  0.00  0.00     0.028 H 
ATOM     16  H7  <0> d           0.757  -1.601   1.236  0.00  0.00     0.028 H 
ATOM     17  H8  <0> d           1.765  -0.134   1.234  0.00  0.00     0.028 H 
ENDBRANCH   8  14
ENDBRANCH   1   8
BRANCH   6  18
ATOM     18  N2  <0> d          -3.088  -1.334   3.049  0.00  0.00    -0.364 N 
ATOM     19  H9  <0> d          -3.303  -2.188   3.457  0.00  0.00     0.159 HD
ATOM     20  H10 <0> d          -3.340  -0.508   3.492  0.00  0.00     0.159 HD
ENDBRANCH   6  18
TORSDOF 4
