REMARK  4 active torsions:
REMARK  status: ('A' for Active; 'I' for Inactive)
REMARK    1  A    between atoms: C1_1  and  C2_2 
REMARK    2  A    between atoms: C2_2  and  O2_4 
REMARK    3  A    between atoms: O2_4  and  C3_5 
REMARK    4  A    between atoms: C3_5  and  C6_8 
ROOT
ATOM      1  C3  <0> d           0.091   1.375   0.145  0.00  0.00     0.067 A 
ATOM      2  C4  <0> d           1.557   0.945   0.223  0.00  0.00    -0.033 A 
ATOM      3  C5  <0> d           0.445  -0.087   0.425  0.00  0.00    -0.033 A 
ATOM      4  H4  <0> d           2.119   0.903  -0.710  0.00  0.00     0.037 H 
ATOM      5  H5  <0> d           2.125   1.251   1.101  0.00  0.00     0.037 H 
ATOM      6  H6  <0> d           0.282  -0.459   1.436  0.00  0.00     0.037 H 
ATOM      7  H7  <0> d           0.276  -0.807  -0.375  0.00  0.00     0.037 H 
ENDROOT
BRANCH   1   8
ATOM      8  O2  <0> d          -0.437   2.160   1.247  0.00  0.00    -0.311 OA
BRANCH   8   9
ATOM      9  C2  <0> d          -1.618   1.776   1.757  0.00  0.00     0.255 C 
ATOM     10  O1  <0> d          -2.236   0.876   1.240  0.00  0.00    -0.266 OA
BRANCH   9  11
ATOM     11  C1  <0> d          -2.173   2.469   2.975  0.00  0.00     0.004 C 
ATOM     12  H1  <0> d          -1.481   3.247   3.298  0.00  0.00     0.041 H 
ATOM     13  H2  <0> d          -3.136   2.917   2.732  0.00  0.00     0.041 H 
ATOM     14  H3  <0> d          -2.303   1.743   3.778  0.00  0.00     0.041 H 
ENDBRANCH   9  11
ENDBRANCH   8   9
ENDBRANCH   1   8
BRANCH   1  15
ATOM     15  C6  <0> d          -0.474   1.714  -1.236  0.00  0.00    -0.047 C 
ATOM     16  H8  <0> d          -1.367   1.115  -1.420  0.00  0.00     0.031 H 
ATOM     17  H9  <0> d          -0.732   2.772  -1.274  0.00  0.00     0.031 H 
ATOM     18  H10 <0> d           0.274   1.494  -1.998  0.00  0.00     0.031 H 
ENDBRANCH   1  15
TORSDOF 4
