REMARK  4 active torsions:
REMARK  status: ('A' for Active; 'I' for Inactive)
REMARK    1  A    between atoms: C1_1  and  C2_2 
REMARK    2  A    between atoms: C3_3  and  N5_10 
REMARK    3  A    between atoms: C4_4  and  N4_9 
REMARK    4  A    between atoms: C5_6  and  N3_8 
ROOT
ATOM      1  C2  <0> d           1.148  -0.671  -0.013  0.00  0.00     0.080 A 
ATOM      2  C3  <0> d           2.341   0.034  -0.020  0.00  0.00     0.097 A 
ATOM      3  C4  <0> d           2.287   1.435  -0.012  0.00  0.00     0.169 A 
ATOM      4  N1  <0> d           1.101   2.032   0.003  0.00  0.00    -0.043 NA
ATOM      5  C5  <0> d          -0.016   1.319   0.009  0.00  0.00     0.722 A 
ATOM      6  N2  <0> d           0.002  -0.004   0.002  0.00  0.00    -0.066 NA
ENDROOT
BRANCH   1   7
ATOM      7  C1  <0> d           1.153  -2.178  -0.021  0.00  0.00    -0.033 C 
ATOM      8  H1  <0> d           1.145  -2.535  -1.051  0.00  0.00     0.035 H 
ATOM      9  H2  <0> d           2.049  -2.541   0.482  0.00  0.00     0.035 H 
ATOM     10  H3  <0> d           0.269  -2.547   0.499  0.00  0.00     0.035 H 
ENDBRANCH   1   7
BRANCH   2  11
ATOM     11  N5  <0> d           3.574  -0.638  -0.035  0.00  0.00    -0.394 N 
ATOM     12  H8  <0> d           3.597  -1.607  -0.040  0.00  0.00     0.156 HD
ATOM     13  H9  <0> d           4.402  -0.132  -0.040  0.00  0.00     0.156 HD
ENDBRANCH   2  11
BRANCH   5  14
ATOM     14  N3  <0> d          -1.237   1.978   0.019  0.00  0.00    -0.231 N 
ATOM     15  H4  <0> d          -2.062   1.468   0.020  0.00  0.00     0.174 HD
ATOM     16  H5  <0> d          -1.265   2.947   0.024  0.00  0.00     0.174 HD
ENDBRANCH   5  14
BRANCH   3  17
ATOM     17  N4  <0> d           3.454   2.185  -0.019  0.00  0.00    -0.382 N 
ATOM     18  H6  <0> d           4.316   1.741  -0.029  0.00  0.00     0.157 HD
ATOM     19  H7  <0> d           3.408   3.154  -0.013  0.00  0.00     0.157 HD
ENDBRANCH   3  17
TORSDOF 4
