REMARK  1 active torsions:
REMARK  status: ('A' for Active; 'I' for Inactive)
REMARK    1  A    between atoms: C1_1  and  C2_2 
ROOT
ATOM      1  C2  <0> d          -0.013   1.086   0.008  0.00  0.00     0.059 C 
ATOM      2  H1  <0> d           0.002  -0.004   0.002  0.00  0.00     0.086 H 
ATOM      3  C3  <0> d           1.426   1.660  -0.003  0.00  0.00     0.047 C 
ATOM      4  O1  <0> d           1.810   1.605   1.386  0.00  0.00    -0.353 OA
ATOM      5  C4  <0> d           0.604   1.552   2.159  0.00  0.00     0.164 C 
ATOM      6  O2  <0> d          -0.522   1.590   1.266  0.00  0.00    -0.348 OA
ATOM      7  C5  <0> d           0.545   2.754   3.103  0.00  0.00    -0.013 C 
ATOM      8  C6  <0> d           1.740   2.711   4.058  0.00  0.00    -0.060 C 
ATOM      9  C7  <0> d           1.698   1.415   4.870  0.00  0.00    -0.065 C 
ATOM     10  C8  <0> d           1.763   0.216   3.922  0.00  0.00    -0.060 C 
ATOM     11  C9  <0> d           0.568   0.255   2.968  0.00  0.00    -0.013 C 
ATOM     12  H5  <0> d           2.085   1.038  -0.609  0.00  0.00     0.078 H 
ATOM     13  H6  <0> d           1.427   2.689  -0.362  0.00  0.00     0.078 H 
ATOM     14  H7  <0> d           0.578   3.675   2.522  0.00  0.00     0.041 H 
ATOM     15  H8  <0> d          -0.380   2.720   3.678  0.00  0.00     0.041 H 
ATOM     16  H9  <0> d           1.697   3.565   4.734  0.00  0.00     0.033 H 
ATOM     17  H10 <0> d           2.666   2.749   3.483  0.00  0.00     0.033 H 
ATOM     18  H11 <0> d           0.771   1.375   5.442  0.00  0.00     0.033 H 
ATOM     19  H12 <0> d           2.547   1.386   5.552  0.00  0.00     0.033 H 
ATOM     20  H13 <0> d           1.736  -0.707   4.502  0.00  0.00     0.033 H 
ATOM     21  H14 <0> d           2.688   0.257   3.348  0.00  0.00     0.033 H 
ATOM     22  H15 <0> d          -0.357   0.210   3.542  0.00  0.00     0.041 H 
ATOM     23  H16 <0> d           0.616  -0.598   2.290  0.00  0.00     0.041 H 
ENDROOT
BRANCH   1  24
ATOM     24  C1  <0> d          -0.827   1.626  -1.169  0.00  0.00    -0.050 C 
ATOM     25  H2  <0> d          -0.375   1.297  -2.105  0.00  0.00     0.031 H 
ATOM     26  H3  <0> d          -1.848   1.251  -1.107  0.00  0.00     0.031 H 
ATOM     27  H4  <0> d          -0.837   2.716  -1.134  0.00  0.00     0.031 H 
ENDBRANCH   1  24
TORSDOF 1
