REMARK  1 active torsions:
REMARK  status: ('A' for Active; 'I' for Inactive)
REMARK    1  A    between atoms: C1_1  and  C2_2 
ROOT
ATOM      1  C2  <0> d           2.390   1.427  -0.013  0.00  0.00    -0.059 A 
ATOM      2  C3  <0> d           1.186   2.101   0.002  0.00  0.00    -0.057 A 
ATOM      3  C4  <0> d          -0.017   1.389   0.010  0.00  0.00     0.046 A 
ATOM      4  C5  <0> d           0.002  -0.004   0.002  0.00  0.00    -0.043 A 
ATOM      5  C6  <0> d           1.222  -0.678  -0.013  0.00  0.00     0.046 A 
ATOM      6  C7  <0> d           2.417   0.047  -0.021  0.00  0.00    -0.057 A 
ATOM      7  C8  <0> d           1.251  -2.110  -0.022  0.00  0.00     0.099 C 
ATOM      8  N1  <0> d           1.274  -3.245  -0.028  0.00  0.00    -0.191 NA
ATOM      9  C9  <0> d          -1.266   2.090   0.019  0.00  0.00     0.099 C 
ATOM     10  N2  <0> d          -2.256   2.646   0.027  0.00  0.00    -0.191 NA
ATOM     11  H4  <0> d           1.172   3.181   0.008  0.00  0.00     0.086 H 
ATOM     12  H5  <0> d          -0.924  -0.559   0.008  0.00  0.00     0.088 H 
ATOM     13  H6  <0> d           3.363  -0.474  -0.033  0.00  0.00     0.086 H 
ENDROOT
BRANCH   1  14
ATOM     14  C1  <0> d           3.683   2.202  -0.022  0.00  0.00    -0.051 C 
ATOM     15  H1  <0> d           3.985   2.394  -1.052  0.00  0.00     0.033 H 
ATOM     16  H2  <0> d           3.542   3.149   0.499  0.00  0.00     0.033 H 
ATOM     17  H3  <0> d           4.457   1.623   0.481  0.00  0.00     0.033 H 
ENDBRANCH   1  14
TORSDOF 1
