REMARK  2 active torsions:
REMARK  status: ('A' for Active; 'I' for Inactive)
REMARK    1  A    between atoms: C6_8  and  C8_13 
REMARK    2  A    between atoms: C7_10  and  O1_12 
REMARK       I    between atoms: C8_13  and  N1_15 
ROOT
ATOM      1  C1  <0> d          -0.783   1.607   1.242  0.00  0.00    -0.060 C 
ATOM      2  C2  <0> d          -0.013   1.086   0.008  0.00  0.00    -0.059 C 
ATOM      3  C3  <0> d          -0.813   1.625  -1.216  0.00  0.00    -0.028 C 
ATOM      4  H1  <0> d          -0.635   1.117  -2.164  0.00  0.00     0.043 H 
ATOM      5  C4  <0> d          -2.276   1.578  -0.650  0.00  0.00    -0.055 C 
ATOM      6  C5  <0> d          -1.980   2.413   0.645  0.00  0.00    -0.040 C 
ATOM      7  H2  <0> d          -2.827   2.590   1.308  0.00  0.00     0.041 H 
ATOM      8  C6  <0> d          -1.324   3.684   0.025  0.00  0.00     0.052 C 
ATOM      9  H3  <0> d          -0.638   4.145   0.736  0.00  0.00     0.059 H 
ATOM     10  C7  <0> d          -0.551   3.162  -1.208  0.00  0.00     0.051 C 
ATOM     11  H4  <0> d           0.515   3.365  -1.102  0.00  0.00     0.084 H 
ATOM     12  H5  <0> d          -1.147   0.774   1.843  0.00  0.00     0.033 H 
ATOM     13  H6  <0> d          -0.146   2.259   1.841  0.00  0.00     0.033 H 
ATOM     14  H7  <0> d           0.002  -0.004   0.002  0.00  0.00     0.033 H 
ATOM     15  H8  <0> d           1.004   1.479   0.000  0.00  0.00     0.033 H 
ATOM     16  H9  <0> d          -2.986   2.081  -1.308  0.00  0.00     0.034 H 
ATOM     17  H10 <0> d          -2.592   0.561  -0.418  0.00  0.00     0.034 H 
ENDROOT
BRANCH   8  18
ATOM     18  C8  <0> d          -2.383   4.670  -0.397  0.00  0.00     0.222 C 
ATOM     19  O2  <0> d          -3.552   4.435  -0.176  0.00  0.00    -0.273 OA
ATOM     20  N1  <0> d          -2.030   5.811  -1.021  0.00  0.00    -0.370 N 
ATOM     21  H12 <0> d          -1.095   5.999  -1.197  0.00  0.00     0.159 HD
ATOM     22  H13 <0> d          -2.712   6.446  -1.292  0.00  0.00     0.159 HD
ENDBRANCH   8  18
BRANCH  10  23
ATOM     23  O1  <0> d          -1.054   3.760  -2.404  0.00  0.00    -0.394 OA
ATOM     24  H11 <0> d          -0.918   4.716  -2.453  0.00  0.00     0.210 HD
ENDBRANCH  10  23
TORSDOF 2
