REMARK  2 active torsions:
REMARK  status: ('A' for Active; 'I' for Inactive)
REMARK    1  A    between atoms: C1_1  and  C2_2 
REMARK    2  A    between atoms: C5_5  and  N2_8 
ROOT
ATOM      1  C2  <0> d          -1.186   3.149   0.030  0.00  0.00    -0.044 A 
ATOM      2  C3  <0> d          -1.215   1.761   0.017  0.00  0.00    -0.072 A 
ATOM      3  C4  <0> d          -0.013   1.076   0.008  0.00  0.00    -0.038 A 
ATOM      4  C5  <0> d           1.176   1.796   0.001  0.00  0.00     0.133 A 
ATOM      5  N1  <0> d           1.162   3.119   0.007  0.00  0.00    -0.242 NA
ATOM      6  C6  <0> d           0.032   3.799   0.021  0.00  0.00     0.010 A 
ATOM      7  H4  <0> d          -2.154   1.228   0.019  0.00  0.00     0.084 H 
ATOM      8  H5  <0> d           0.002  -0.004   0.002  0.00  0.00     0.089 H 
ATOM      9  H6  <0> d           0.059   4.879   0.026  0.00  0.00     0.115 H 
ENDROOT
BRANCH   4  10
ATOM     10  N2  <0> d           2.397   1.117  -0.015  0.00  0.00    -0.318 N 
ATOM     11  C10 <0> d           3.633   1.699  -0.024  0.00  0.00    -0.014 A 
ATOM     12  C9  <0> d           4.560   0.720  -0.037  0.00  0.00    -0.066 A 
ATOM     13  H10 <0> d           3.833   2.761  -0.020  0.00  0.00     0.112 H 
ATOM     14  C8  <0> d           3.874  -0.512  -0.037  0.00  0.00    -0.066 A 
ATOM     15  H9  <0> d           5.631   0.855  -0.046  0.00  0.00     0.085 H 
ATOM     16  C7  <0> d           2.554  -0.241  -0.018  0.00  0.00    -0.014 A 
ATOM     17  H8  <0> d           4.325  -1.493  -0.046  0.00  0.00     0.085 H 
ATOM     18  H7  <0> d           1.758  -0.970  -0.009  0.00  0.00     0.112 H 
ENDBRANCH   4  10
BRANCH   1  19
ATOM     19  C1  <0> d          -2.471   3.937   0.046  0.00  0.00    -0.050 C 
ATOM     20  H1  <0> d          -2.790   4.132  -0.978  0.00  0.00     0.033 H 
ATOM     21  H2  <0> d          -3.241   3.366   0.565  0.00  0.00     0.033 H 
ATOM     22  H3  <0> d          -2.310   4.883   0.563  0.00  0.00     0.033 H 
ENDBRANCH   1  19
TORSDOF 2
