REMARK  3 active torsions:
REMARK  status: ('A' for Active; 'I' for Inactive)
REMARK    1  A    between atoms: C1_1  and  C2_2 
REMARK    2  A    between atoms: C2_2  and  C4_4 
REMARK    3  A    between atoms: C5_5  and  C6_6 
ROOT
ATOM      1  C2  <0> d           0.002  -0.004   0.002  0.00  0.00    -0.018 C 
ATOM      2  C3  <0> d           1.165  -0.655  -0.013  0.00  0.00    -0.108 C 
ATOM      3  H4  <0> d           1.180  -1.735  -0.018  0.00  0.00     0.068 H 
ATOM      4  H5  <0> d           2.093  -0.102  -0.018  0.00  0.00     0.068 H 
ENDROOT
BRANCH   1   5
ATOM      5  C1  <0> d          -0.018   1.503   0.010  0.00  0.00    -0.045 C 
ATOM      6  H1  <0> d           1.004   1.880   0.003  0.00  0.00     0.034 H 
ATOM      7  H2  <0> d          -0.545   1.864  -0.873  0.00  0.00     0.034 H 
ATOM      8  H3  <0> d          -0.529   1.854   0.907  0.00  0.00     0.034 H 
ENDBRANCH   1   5
BRANCH   1   9
ATOM      9  C4  <0> d          -1.228  -0.737   0.010  0.00  0.00    -0.068 C 
ATOM     10  C5  <0> d          -2.237  -1.338   0.016  0.00  0.00    -0.074 C 
BRANCH  10  11
ATOM     11  C6  <0> d          -3.467  -2.071   0.024  0.00  0.00    -0.042 C 
ATOM     12  C7  <0> d          -3.449  -3.403   0.017  0.00  0.00    -0.114 C 
ATOM     13  H7  <0> d          -4.377  -3.956   0.023  0.00  0.00     0.067 H 
ATOM     14  H8  <0> d          -2.506  -3.930   0.005  0.00  0.00     0.067 H 
ATOM     15  H6  <0> d          -4.410  -1.543   0.036  0.00  0.00     0.096 H 
ENDBRANCH  10  11
ENDBRANCH   1   9
TORSDOF 3
