REMARK  4 active torsions:
REMARK  status: ('A' for Active; 'I' for Inactive)
REMARK    1  A    between atoms: C1_1  and  C2_2 
REMARK    2  A    between atoms: C2_2  and  C3_3 
REMARK    3  A    between atoms: C3_3  and  C4_5 
REMARK    4  A    between atoms: C3_3  and  N1_6 
ROOT
ATOM      1  C3  <0> d           1.872  -1.761  -0.025  0.00  0.00     0.032 C 
ATOM      2  H1  <0> d           1.127  -2.429  -0.455  0.00  0.00     0.075 H 
ENDROOT
BRANCH   1   3
ATOM      3  C2  <0> d           2.184  -2.200   1.407  0.00  0.00    -0.048 C 
ATOM      4  H5  <0> d           2.993  -1.588   1.807  0.00  0.00     0.035 H 
ATOM      5  H6  <0> d           1.296  -2.078   2.027  0.00  0.00     0.035 H 
BRANCH   3   6
ATOM      6  C1  <0> d           2.609  -3.670   1.409  0.00  0.00    -0.075 C 
ATOM      7  H2  <0> d           1.801  -4.282   1.009  0.00  0.00     0.027 H 
ATOM      8  H3  <0> d           3.498  -3.792   0.790  0.00  0.00     0.027 H 
ATOM      9  H4  <0> d           2.832  -3.983   2.429  0.00  0.00     0.027 H 
ENDBRANCH   3   6
ENDBRANCH   1   3
BRANCH   1  10
ATOM     10  C4  <0> d           3.150  -1.814  -0.864  0.00  0.00    -0.055 C 
ATOM     11  H7  <0> d           3.538  -2.833  -0.873  0.00  0.00     0.030 H 
ATOM     12  H8  <0> d           2.928  -1.501  -1.884  0.00  0.00     0.030 H 
ATOM     13  H9  <0> d           3.896  -1.145  -0.433  0.00  0.00     0.030 H 
ENDBRANCH   1  10
BRANCH   1  14
ATOM     14  N1  <0> d           1.352  -0.392  -0.013  0.00  0.00    -0.258 N 
ATOM     15  N3  <0> d           0.002  -0.004   0.002  0.00  0.00    -0.164 NA
ATOM     16  C6  <0> d          -0.016   1.303   0.009  0.00  0.00     0.107 A 
ATOM     17  N2  <0> d           1.238   1.753  -0.000  0.00  0.00    -0.234 NA
ATOM     18  H11 <0> d          -0.903   1.919   0.017  0.00  0.00     0.149 H 
ATOM     19  C5  <0> d           2.072   0.744  -0.014  0.00  0.00     0.084 A 
ATOM     20  H10 <0> d           3.149   0.812  -0.024  0.00  0.00     0.146 H 
ENDBRANCH   1  14
TORSDOF 4
