REMARK  1 active torsions:
REMARK  status: ('A' for Active; 'I' for Inactive)
REMARK    1  A    between atoms: C1_1  and  C2_2 
ROOT
ATOM      1  C2  <0> d           2.360  -0.037  -0.021  0.00  0.00    -0.003 A 
ATOM      2  C3  <0> d           2.393   1.345  -0.013  0.00  0.00    -0.051 A 
ATOM      3  C4  <0> d           1.176   2.039   0.002  0.00  0.00     0.062 A 
ATOM      4  C5  <0> d          -0.016   1.313   0.009  0.00  0.00     0.025 A 
ATOM      5  N1  <0> d           0.002  -0.004   0.002  0.00  0.00    -0.231 NA
ATOM      6  C6  <0> d           1.134  -0.686  -0.012  0.00  0.00     0.215 A 
ATOM      7  F1  <0> d           1.097  -2.037  -0.020  0.00  0.00    -0.184 F 
ATOM      8  C7  <0> d           1.156   3.471   0.009  0.00  0.00     0.101 C 
ATOM      9  N2  <0> d           1.139   4.607   0.015  0.00  0.00    -0.191 NA
ATOM     10  H4  <0> d           3.334   1.876  -0.019  0.00  0.00     0.086 H 
ATOM     11  H5  <0> d          -0.961   1.835   0.017  0.00  0.00     0.117 H 
ENDROOT
BRANCH   1  12
ATOM     12  C1  <0> d           3.641  -0.830  -0.037  0.00  0.00    -0.047 C 
ATOM     13  H1  <0> d           3.941  -1.016  -1.068  0.00  0.00     0.033 H 
ATOM     14  H2  <0> d           4.423  -0.267   0.473  0.00  0.00     0.033 H 
ATOM     15  H3  <0> d           3.487  -1.780   0.474  0.00  0.00     0.033 H 
ENDBRANCH   1  12
TORSDOF 1
