REMARK  8 active torsions:
REMARK  status: ('A' for Active; 'I' for Inactive)
REMARK    1  A    between atoms: C1_1  and  C2_2 
REMARK    2  A    between atoms: C2_2  and  C3_3 
REMARK    3  A    between atoms: C3_3  and  C4_4 
REMARK    4  A    between atoms: C3_3  and  C5_5 
REMARK    5  A    between atoms: C3_3  and  O3_9 
REMARK    6  A    between atoms: C5_5  and  O2_7 
REMARK    7  A    between atoms: O2_7  and  C6_8 
REMARK    8  A    between atoms: O3_9  and  C7_10 
ROOT
ATOM      1  C3  <0> d          -0.068   1.127   2.404  0.00  0.00     0.143 C 
ENDROOT
BRANCH   1   2
ATOM      2  C2  <0> d          -0.049  -0.402   2.465  0.00  0.00    -0.031 C 
ATOM      3  H4  <0> d           0.424  -0.726   3.405  0.00  0.00     0.037 H 
ATOM      4  H5  <0> d           0.523  -0.796   1.613  0.00  0.00     0.037 H 
BRANCH   2   5
ATOM      5  C1  <0> d          -1.482  -0.933   2.406  0.00  0.00    -0.073 C 
ATOM      6  H1  <0> d          -1.469  -2.032   2.450  0.00  0.00     0.027 H 
ATOM      7  H2  <0> d          -1.955  -0.609   1.467  0.00  0.00     0.027 H 
ATOM      8  H3  <0> d          -2.055  -0.539   3.259  0.00  0.00     0.027 H 
ENDBRANCH   2   5
ENDBRANCH   1   2
BRANCH   1   9
ATOM      9  C4  <0> d          -0.864   1.675   3.590  0.00  0.00    -0.039 C 
ATOM     10  H6  <0> d          -0.878   2.774   3.546  0.00  0.00     0.032 H 
ATOM     11  H7  <0> d          -0.391   1.351   4.529  0.00  0.00     0.032 H 
ATOM     12  H8  <0> d          -1.895   1.293   3.548  0.00  0.00     0.032 H 
ENDBRANCH   1   9
BRANCH   1  13
ATOM     13  C5  <0> d           1.344   1.649   2.462  0.00  0.00     0.293 C 
ATOM     14  O1  <0> d           2.213   0.988   2.980  0.00  0.00    -0.262 OA
BRANCH  13  15
ATOM     15  O2  <0> d           1.637   2.850   1.938  0.00  0.00    -0.324 OA
BRANCH  15  16
ATOM     16  C6  <0> d           3.018   3.290   2.030  0.00  0.00     0.013 C 
ATOM     17  H9  <0> d           3.119   4.282   1.566  0.00  0.00     0.067 H 
ATOM     18  H10 <0> d           3.667   2.572   1.506  0.00  0.00     0.067 H 
ATOM     19  H11 <0> d           3.315   3.348   3.088  0.00  0.00     0.067 H 
ENDBRANCH  15  16
ENDBRANCH  13  15
ENDBRANCH   1  13
BRANCH   1  20
ATOM     20  O3  <0> d          -0.682   1.547   1.184  0.00  0.00    -0.375 OA
BRANCH  20  21
ATOM     21  C7  <0> d          -0.013   1.086   0.008  0.00  0.00     0.006 C 
ATOM     22  H12 <0> d          -0.545   1.450  -0.883  0.00  0.00     0.066 H 
ATOM     23  H13 <0> d           0.002  -0.014   0.002  0.00  0.00     0.066 H 
ATOM     24  H14 <0> d           1.019   1.466   0.000  0.00  0.00     0.066 H 
ENDBRANCH  20  21
ENDBRANCH   1  20
TORSDOF 8
