REMARK  1 active torsions:
REMARK  status: ('A' for Active; 'I' for Inactive)
REMARK    1  A    between atoms: C1_1  and  C2_2 
ROOT
ATOM      1  C2  <0> d           0.002  -0.004   0.002  0.00  0.00     0.100 A 
ATOM      2  C3  <0> d          -1.211  -0.729   0.004  0.00  0.00     0.269 A 
ATOM      3  O1  <0> d          -2.281  -0.142   0.012  0.00  0.00    -0.266 OA
ATOM      4  N1  <0> d          -1.170  -2.078  -0.004  0.00  0.00    -0.329 N 
ATOM      5  H1  <0> d          -1.991  -2.595  -0.004  0.00  0.00     0.168 HD
ATOM      6  C4  <0> d           0.037  -2.704  -0.014  0.00  0.00     0.019 A 
ATOM      7  C5  <0> d           1.181  -1.975  -0.015  0.00  0.00     0.141 A 
ATOM      8  N2  <0> d           1.145  -0.645  -0.012  0.00  0.00    -0.235 NA
ATOM      9 Cl1  <0> d           2.715  -2.789  -0.026  0.00  0.00    -0.061 Cl
ATOM     10  H5  <0> d           0.085  -3.783  -0.020  0.00  0.00     0.116 H 
ENDROOT
BRANCH   1  11
ATOM     11  C1  <0> d          -0.018   1.503   0.010  0.00  0.00    -0.030 C 
ATOM     12  H2  <0> d           1.004   1.880   0.003  0.00  0.00     0.035 H 
ATOM     13  H3  <0> d          -0.545   1.864  -0.873  0.00  0.00     0.035 H 
ATOM     14  H4  <0> d          -0.529   1.854   0.907  0.00  0.00     0.035 H 
ENDBRANCH   1  11
TORSDOF 1
