REMARK  3 active torsions:
REMARK  status: ('A' for Active; 'I' for Inactive)
REMARK    1  A    between atoms: C1_1  and  C2_2 
REMARK    2  A    between atoms: C2_2  and  C3_3 
REMARK    3  A    between atoms: C3_3  and  C4_5 
ROOT
ATOM      1  C4  <0> d          -0.048   3.856   0.021  0.00  0.00     0.011 A 
ATOM      2  C5  <0> d           1.167   3.160   0.007  0.00  0.00    -0.069 A 
ATOM      3  C6  <0> d           1.175   1.781   0.000  0.00  0.00    -0.081 A 
ATOM      4  C7  <0> d          -0.013   1.076   0.008  0.00  0.00    -0.063 A 
ATOM      5  C8  <0> d          -1.233   1.756   0.017  0.00  0.00     0.045 A 
ATOM      6  C9  <0> d          -1.251   3.149   0.029  0.00  0.00    -0.050 A 
ATOM      7  C10 <0> d          -2.463   1.022   0.020  0.00  0.00     0.099 C 
ATOM      8  N1  <0> d          -3.439   0.441   0.021  0.00  0.00    -0.191 NA
ATOM      9  H6  <0> d           2.100   3.705   0.001  0.00  0.00     0.085 H 
ATOM     10  H7  <0> d           2.115   1.249  -0.011  0.00  0.00     0.083 H 
ATOM     11  H8  <0> d           0.002  -0.004   0.002  0.00  0.00     0.085 H 
ATOM     12  H9  <0> d          -2.192   3.680   0.041  0.00  0.00     0.087 H 
ENDROOT
BRANCH   1  13
ATOM     13  C3  <0> d          -0.056   5.328   0.027  0.00  0.00     0.159 C 
ATOM     14  O1  <0> d          -1.109   5.928   0.040  0.00  0.00    -0.292 OA
BRANCH  13  15
ATOM     15  C2  <0> d           1.245   6.088   0.018  0.00  0.00    -0.008 C 
ATOM     16  H4  <0> d           1.815   5.829  -0.887  0.00  0.00     0.044 H 
ATOM     17  H5  <0> d           1.832   5.822   0.910  0.00  0.00     0.044 H 
BRANCH  15  18
ATOM     18  C1  <0> d           0.957   7.591   0.027  0.00  0.00    -0.070 C 
ATOM     19  H1  <0> d           1.907   8.146   0.020  0.00  0.00     0.028 H 
ATOM     20  H2  <0> d           0.388   7.850   0.932  0.00  0.00     0.028 H 
ATOM     21  H3  <0> d           0.371   7.857  -0.865  0.00  0.00     0.028 H 
ENDBRANCH  15  18
ENDBRANCH  13  15
ENDBRANCH   1  13
TORSDOF 3
