REMARK  3 active torsions:
REMARK  status: ('A' for Active; 'I' for Inactive)
REMARK    1  A    between atoms: C1_1  and  C2_2 
REMARK    2  A    between atoms: C2_2  and  C3_4 
REMARK    3  A    between atoms: C3_4  and  O2_9 
ROOT
ATOM      1  C3  <0> d          -0.000  -0.750  -1.307  0.00  0.00     0.117 C 
ATOM      2  C4  <0> d           1.444  -1.054  -1.743  0.00  0.00    -0.029 C 
ATOM      3  C5  <0> d           1.566  -2.590  -1.824  0.00  0.00    -0.062 C 
ATOM      4  C6  <0> d           0.111  -3.076  -2.034  0.00  0.00    -0.062 C 
ATOM      5  C7  <0> d          -0.705  -2.112  -1.138  0.00  0.00    -0.029 C 
ATOM      6  H4  <0> d           1.639  -0.612  -2.720  0.00  0.00     0.038 H 
ATOM      7  H5  <0> d           2.146  -0.661  -1.008  0.00  0.00     0.038 H 
ATOM      8  H6  <0> d           2.191  -2.879  -2.669  0.00  0.00     0.033 H 
ATOM      9  H7  <0> d           1.972  -2.989  -0.894  0.00  0.00     0.033 H 
ATOM     10  H8  <0> d          -0.183  -2.974  -3.079  0.00  0.00     0.033 H 
ATOM     11  H9  <0> d          -0.004  -4.107  -1.699  0.00  0.00     0.033 H 
ATOM     12  H10 <0> d          -0.666  -2.435  -0.097  0.00  0.00     0.038 H 
ATOM     13  H11 <0> d          -1.737  -2.053  -1.482  0.00  0.00     0.038 H 
ENDROOT
BRANCH   1  14
ATOM     14  C2  <0> d           0.002  -0.004   0.002  0.00  0.00     0.157 C 
ATOM     15  O1  <0> d           0.020  -0.613   1.044  0.00  0.00    -0.295 OA
BRANCH  14  16
ATOM     16  C1  <0> d          -0.018   1.503   0.010  0.00  0.00    -0.018 C 
ATOM     17  H1  <0> d           1.004   1.880   0.003  0.00  0.00     0.037 H 
ATOM     18  H2  <0> d          -0.545   1.864  -0.873  0.00  0.00     0.037 H 
ATOM     19  H3  <0> d          -0.529   1.854   0.907  0.00  0.00     0.037 H 
ENDBRANCH  14  16
ENDBRANCH   1  14
BRANCH   1  20
ATOM     20  O2  <0> d          -0.663   0.022  -2.310  0.00  0.00    -0.382 OA
ATOM     21  H12 <0> d          -0.260   0.887  -2.470  0.00  0.00     0.211 HD
ENDBRANCH   1  20
TORSDOF 3
