REMARK  4 active torsions:
REMARK  status: ('A' for Active; 'I' for Inactive)
REMARK    1  A    between atoms: C1_1  and  C2_2 
REMARK    2  A    between atoms: C2_2  and  O1_3 
REMARK    3  A    between atoms: O1_3  and  C3_4 
REMARK    4  A    between atoms: C3_4  and  C4_5 
ROOT
ATOM      1  C3  <0> d           0.002  -0.004   0.002  0.00  0.00     0.063 C 
ATOM      2  H6  <0> d           0.512  -0.356  -0.895  0.00  0.00     0.084 H 
ATOM      3  H7  <0> d           0.529  -0.365   0.885  0.00  0.00     0.084 H 
ENDROOT
BRANCH   1   4
ATOM      4  O1  <0> d          -0.017   1.425   0.010  0.00  0.00    -0.385 OA
BRANCH   4   5
ATOM      5  C2  <0> d           1.280   2.024   0.001  0.00  0.00     0.017 C 
ATOM      6  H4  <0> d           1.834   1.705   0.884  0.00  0.00     0.073 H 
ATOM      7  H5  <0> d           1.817   1.714  -0.896  0.00  0.00     0.073 H 
BRANCH   5   8
ATOM      8  C1  <0> d           1.139   3.547   0.010  0.00  0.00    -0.056 C 
ATOM      9  H1  <0> d           0.585   3.866  -0.873  0.00  0.00     0.030 H 
ATOM     10  H2  <0> d           0.602   3.857   0.907  0.00  0.00     0.030 H 
ATOM     11  H3  <0> d           2.128   4.004   0.003  0.00  0.00     0.030 H 
ENDBRANCH   5   8
ENDBRANCH   4   5
ENDBRANCH   1   4
BRANCH   1  12
ATOM     12  C4  <0> d          -1.412  -0.526   0.013  0.00  0.00     0.076 A 
ATOM     13  O2  <0> d          -2.136  -0.809   1.108  0.00  0.00    -0.325 OA
ATOM     14  C7  <0> d          -3.351  -1.248   0.740  0.00  0.00     0.019 A 
ATOM     15  C6  <0> d          -3.410  -1.257  -0.604  0.00  0.00    -0.059 A 
ATOM     16  H10 <0> d          -4.144  -1.546   1.409  0.00  0.00     0.123 H 
ATOM     17  C5  <0> d          -2.160  -0.792  -1.073  0.00  0.00    -0.050 A 
ATOM     18  H9  <0> d          -4.252  -1.562  -1.209  0.00  0.00     0.086 H 
ATOM     19  H8  <0> d          -1.863  -0.673  -2.104  0.00  0.00     0.087 H 
ENDBRANCH   1  12
TORSDOF 4
