REMARK  4 active torsions:
REMARK  status: ('A' for Active; 'I' for Inactive)
REMARK    1  A    between atoms: C1_1  and  N1_2 
REMARK    2  A    between atoms: C3_4  and  C6_9 
REMARK    3  A    between atoms: C6_9  and  O3_11 
REMARK    4  A    between atoms: O3_11  and  C7_12 
ROOT
ATOM      1  N1  <0> d          -1.127   1.963   0.018  0.00  0.00    -0.356 N 
ATOM      2  C2  <0> d          -0.800   3.394   0.037  0.00  0.00     0.009 C 
ATOM      3  C3  <0> d           0.678   3.484  -0.406  0.00  0.00     0.054 C 
ATOM      4  H1  <0> d           0.754   3.631  -1.483  0.00  0.00     0.058 H 
ATOM      5  C4  <0> d           1.214   2.092   0.002  0.00  0.00     0.023 C 
ATOM      6  C5  <0> d          -0.014   1.209   0.009  0.00  0.00     0.220 C 
ATOM      7  O1  <0> d           0.002  -0.004   0.002  0.00  0.00    -0.273 OA
ATOM      8  H5  <0> d          -0.917   3.798   1.042  0.00  0.00     0.065 H 
ATOM      9  H6  <0> d          -1.437   3.935  -0.663  0.00  0.00     0.065 H 
ATOM     10  H7  <0> d           1.661   2.131   0.995  0.00  0.00     0.048 H 
ATOM     11  H8  <0> d           1.938   1.733  -0.730  0.00  0.00     0.048 H 
ENDROOT
BRANCH   3  12
ATOM     12  C6  <0> d           1.398   4.578   0.338  0.00  0.00     0.264 C 
ATOM     13  O2  <0> d           0.784   5.316   1.073  0.00  0.00    -0.265 OA
BRANCH  12  14
ATOM     14  O3  <0> d           2.723   4.734   0.186  0.00  0.00    -0.326 OA
BRANCH  14  15
ATOM     15  C7  <0> d           3.350   5.809   0.933  0.00  0.00     0.013 C 
ATOM     16  H9  <0> d           4.419   5.825   0.720  0.00  0.00     0.067 H 
ATOM     17  H10 <0> d           2.907   6.762   0.641  0.00  0.00     0.067 H 
ATOM     18  H11 <0> d           3.195   5.648   2.000  0.00  0.00     0.067 H 
ENDBRANCH  14  15
ENDBRANCH  12  14
ENDBRANCH   3  12
BRANCH   1  19
ATOM     19  C1  <0> d          -2.490   1.427   0.012  0.00  0.00    -0.016 C 
ATOM     20  H2  <0> d          -2.451   0.338   0.001  0.00  0.00     0.056 H 
ATOM     21  H3  <0> d          -3.016   1.762   0.906  0.00  0.00     0.056 H 
ATOM     22  H4  <0> d          -3.016   1.781  -0.874  0.00  0.00     0.056 H 
ENDBRANCH   1  19
TORSDOF 4
