REMARK  6 active torsions:
REMARK  status: ('A' for Active; 'I' for Inactive)
REMARK    1  A    between atoms: C1_1  and  C2_2 
REMARK    2  A    between atoms: C2_2  and  C3_3 
REMARK    3  A    between atoms: C2_2  and  O1_4 
REMARK    4  A    between atoms: O1_4  and  C4_5 
REMARK    5  A    between atoms: C4_5  and  C5_6 
REMARK    6  A    between atoms: C4_5  and  C6_7 
ROOT
ATOM      1  O1  <0> d           0.856  -0.619   1.191  0.00  0.00    -0.382 OA
ENDROOT
BRANCH   1   2
ATOM      2  C2  <0> d           0.281  -0.048   0.014  0.00  0.00     0.032 C 
ATOM      3  H4  <0> d          -0.594   0.541   0.286  0.00  0.00     0.082 H 
BRANCH   2   4
ATOM      4  C1  <0> d           1.311   0.853  -0.671  0.00  0.00    -0.052 C 
ATOM      5  H1  <0> d           2.190   0.265  -0.935  0.00  0.00     0.030 H 
ATOM      6  H2  <0> d           0.875   1.281  -1.573  0.00  0.00     0.030 H 
ATOM      7  H3  <0> d           1.601   1.655   0.009  0.00  0.00     0.030 H 
ENDBRANCH   2   4
BRANCH   2   8
ATOM      8  C3  <0> d          -0.135  -1.166  -0.944  0.00  0.00    -0.052 C 
ATOM      9  H5  <0> d           0.740  -1.756  -1.216  0.00  0.00     0.030 H 
ATOM     10  H6  <0> d          -0.869  -1.808  -0.457  0.00  0.00     0.030 H 
ATOM     11  H7  <0> d          -0.574  -0.731  -1.842  0.00  0.00     0.030 H 
ENDBRANCH   2   8
ENDBRANCH   1   2
BRANCH   1  12
ATOM     12  C4  <0> d          -0.093  -0.910   2.219  0.00  0.00     0.032 C 
ATOM     13  H8  <0> d          -1.047  -1.181   1.767  0.00  0.00     0.082 H 
BRANCH  12  14
ATOM     14  C5  <0> d           0.417  -2.075   3.070  0.00  0.00    -0.052 C 
ATOM     15  H9  <0> d           1.371  -1.803   3.522  0.00  0.00     0.030 H 
ATOM     16  H10 <0> d          -0.307  -2.297   3.854  0.00  0.00     0.030 H 
ATOM     17  H11 <0> d           0.551  -2.954   2.440  0.00  0.00     0.030 H 
ENDBRANCH  12  14
BRANCH  12  18
ATOM     18  C6  <0> d          -0.281   0.324   3.104  0.00  0.00    -0.052 C 
ATOM     19  H12 <0> d           0.680   0.618   3.525  0.00  0.00     0.030 H 
ATOM     20  H13 <0> d          -0.681   1.142   2.505  0.00  0.00     0.030 H 
ATOM     21  H14 <0> d          -0.976   0.090   3.911  0.00  0.00     0.030 H 
ENDBRANCH  12  18
ENDBRANCH   1  12
TORSDOF 6
