REMARK  5 active torsions:
REMARK  status: ('A' for Active; 'I' for Inactive)
REMARK    1  A    between atoms: C1_1  and  C2_2 
REMARK    2  A    between atoms: C5_5  and  O2_10 
REMARK    3  A    between atoms: C6_6  and  O1_8 
REMARK    4  A    between atoms: O1_8  and  C7_9 
REMARK    5  A    between atoms: O2_10  and  C8_11 
ROOT
ATOM      1  C2  <0> d           0.002  -0.004   0.002  0.00  0.00     0.033 A 
ATOM      2  C3  <0> d           0.006  -0.678  -1.203  0.00  0.00    -0.057 A 
ATOM      3  C4  <0> d           0.025  -2.066  -1.206  0.00  0.00    -0.044 A 
ATOM      4  C5  <0> d           0.040  -2.729   0.013  0.00  0.00     0.121 A 
ATOM      5  C6  <0> d           0.035  -1.982   1.190  0.00  0.00     0.198 A 
ATOM      6  N1  <0> d           0.022  -0.661   1.147  0.00  0.00    -0.228 NA
ATOM      7  H4  <0> d          -0.007  -0.131  -2.134  0.00  0.00     0.086 H 
ATOM      8  H5  <0> d           0.028  -2.616  -2.135  0.00  0.00     0.088 H 
ENDROOT
BRANCH   4   9
ATOM      9  O2  <0> d           0.059  -4.088   0.059  0.00  0.00    -0.352 OA
BRANCH   9  10
ATOM     10  C8  <0> d           0.062  -4.779  -1.191  0.00  0.00     0.011 C 
ATOM     11  H9  <0> d          -0.835  -4.518  -1.753  0.00  0.00     0.067 H 
ATOM     12  H10 <0> d           0.945  -4.493  -1.762  0.00  0.00     0.067 H 
ATOM     13  H11 <0> d           0.077  -5.854  -1.012  0.00  0.00     0.067 H 
ENDBRANCH   9  10
ENDBRANCH   4   9
BRANCH   5  14
ATOM     14  O1  <0> d           0.050  -2.616   2.390  0.00  0.00    -0.337 OA
BRANCH  14  15
ATOM     15  C7  <0> d           0.044  -1.793   3.558  0.00  0.00     0.012 C 
ATOM     16  H6  <0> d          -0.854  -1.177   3.564  0.00  0.00     0.067 H 
ATOM     17  H7  <0> d           0.058  -2.425   4.447  0.00  0.00     0.067 H 
ATOM     18  H8  <0> d           0.925  -1.152   3.555  0.00  0.00     0.067 H 
ENDBRANCH  14  15
ENDBRANCH   5  14
BRANCH   1  19
ATOM     19  C1  <0> d          -0.018   1.503   0.010  0.00  0.00    -0.035 C 
ATOM     20  H1  <0> d           1.004   1.880   0.003  0.00  0.00     0.035 H 
ATOM     21  H2  <0> d          -0.545   1.864  -0.873  0.00  0.00     0.035 H 
ATOM     22  H3  <0> d          -0.529   1.854   0.907  0.00  0.00     0.035 H 
ENDBRANCH   1  19
TORSDOF 5
