REMARK  1 active torsions:
REMARK  status: ('A' for Active; 'I' for Inactive)
REMARK    1  A    between atoms: C2_2  and  O3_11 
ROOT
ATOM      1  C1  <0> d          -0.017   1.383   0.010  0.00  0.00    -0.013 A 
ATOM      2  C2  <0> d           1.199   2.062   0.002  0.00  0.00     0.086 A 
ATOM      3  C3  <0> d           2.377   1.334  -0.014  0.00  0.00     0.037 A 
ATOM      4  N1  <0> d           2.358   0.015  -0.022  0.00  0.00    -0.232 NA
ATOM      5  C4  <0> d           1.225  -0.669  -0.016  0.00  0.00     0.198 A 
ATOM      6  C5  <0> d           0.002  -0.004   0.002  0.00  0.00     0.124 A 
ATOM      7  O1  <0> d          -1.171  -0.692   0.016  0.00  0.00    -0.344 OA
ATOM      8  C6  <0> d          -1.111  -2.071  -0.364  0.00  0.00     0.046 C 
ATOM      9  C7  <0> d           0.077  -2.717   0.361  0.00  0.00     0.048 C 
ATOM     10  O2  <0> d           1.270  -2.029  -0.030  0.00  0.00    -0.330 OA
ATOM     11  H1  <0> d          -0.952   1.923   0.026  0.00  0.00     0.092 H 
ATOM     12  H2  <0> d           3.324   1.853  -0.019  0.00  0.00     0.119 H 
ATOM     13  H3  <0> d          -2.035  -2.572  -0.074  0.00  0.00     0.078 H 
ATOM     14  H4  <0> d          -0.972  -2.150  -1.442  0.00  0.00     0.078 H 
ATOM     15  H5  <0> d          -0.060  -2.633   1.439  0.00  0.00     0.078 H 
ATOM     16  H6  <0> d           0.151  -3.768   0.081  0.00  0.00     0.078 H 
ENDROOT
BRANCH   2  17
ATOM     17  O3  <0> d           1.229   3.421   0.008  0.00  0.00    -0.359 OA
ATOM     18  H7  <0> d           1.246   3.810   0.894  0.00  0.00     0.217 HD
ENDBRANCH   2  17
TORSDOF 1
