REMARK  2 active torsions:
REMARK  status: ('A' for Active; 'I' for Inactive)
REMARK    1  A    between atoms: C1_1  and  C2_2 
REMARK    2  A    between atoms: C5_5  and  N2_8 
ROOT
ATOM      1  C2  <0> d          -3.565   3.048   0.036  0.00  0.00     0.030 A 
ATOM      2  C3  <0> d          -3.616   1.666   0.029  0.00  0.00    -0.057 A 
ATOM      3  C4  <0> d          -2.433   0.945   0.019  0.00  0.00    -0.054 A 
ATOM      4  C5  <0> d          -1.230   1.648   0.017  0.00  0.00     0.043 A 
ATOM      5  C6  <0> d          -1.261   3.036   0.030  0.00  0.00     0.028 A 
ATOM      6  N1  <0> d          -2.410   3.683   0.034  0.00  0.00    -0.264 NA
ATOM      7  H4  <0> d          -4.567   1.155   0.030  0.00  0.00     0.086 H 
ATOM      8  H5  <0> d          -2.443  -0.135   0.013  0.00  0.00     0.087 H 
ATOM      9  H6  <0> d          -0.335   3.592   0.034  0.00  0.00     0.118 H 
ENDROOT
BRANCH   1  10
ATOM     10  C1  <0> d          -4.848   3.838   0.047  0.00  0.00    -0.035 C 
ATOM     11  H1  <0> d          -5.152   4.023   1.077  0.00  0.00     0.035 H 
ATOM     12  H2  <0> d          -4.692   4.790  -0.462  0.00  0.00     0.035 H 
ATOM     13  H3  <0> d          -5.626   3.275  -0.467  0.00  0.00     0.035 H 
ENDBRANCH   1  10
BRANCH   4  14
ATOM     14  N2  <0> d          -0.011   0.966   0.007  0.00  0.00    -0.398 N 
ATOM     15  H7  <0> d           0.002  -0.004   0.002  0.00  0.00     0.156 HD
ATOM     16  H8  <0> d           0.822   1.462   0.002  0.00  0.00     0.156 HD
ENDBRANCH   4  14
TORSDOF 2
