REMARK  4 active torsions:
REMARK  status: ('A' for Active; 'I' for Inactive)
REMARK    1  A    between atoms: C1_1  and  C2_2 
REMARK    2  A    between atoms: C2_2  and  O1_3 
REMARK    3  A    between atoms: O1_3  and  C3_4 
REMARK    4  A    between atoms: C3_4  and  C4_6 
ROOT
ATOM      1  C3  <0> d          -1.497  -1.836   0.006  0.00  0.00     0.313 C 
ATOM      2  O2  <0> d          -0.524  -2.563  -0.007  0.00  0.00    -0.257 OA
ENDROOT
BRANCH   1   3
ATOM      3  O1  <0> d          -1.339  -0.499   0.012  0.00  0.00    -0.317 OA
BRANCH   3   4
ATOM      4  C2  <0> d           0.002  -0.004   0.002  0.00  0.00     0.026 C 
ATOM      5  H4  <0> d           0.512  -0.356  -0.895  0.00  0.00     0.074 H 
ATOM      6  H5  <0> d           0.529  -0.365   0.885  0.00  0.00     0.074 H 
BRANCH   4   7
ATOM      7  C1  <0> d          -0.019   1.526   0.010  0.00  0.00    -0.056 C 
ATOM      8  H1  <0> d           1.004   1.903   0.003  0.00  0.00     0.030 H 
ATOM      9  H2  <0> d          -0.546   1.887  -0.873  0.00  0.00     0.030 H 
ATOM     10  H3  <0> d          -0.529   1.877   0.907  0.00  0.00     0.030 H 
ENDBRANCH   4   7
ENDBRANCH   3   4
ENDBRANCH   1   3
BRANCH   1  11
ATOM     11  C4  <0> d          -2.857  -2.421   0.016  0.00  0.00     0.154 A 
ATOM     12  N2  <0> d          -3.924  -1.629   0.031  0.00  0.00    -0.145 NA
ATOM     13  N1  <0> d          -5.119  -2.098   0.034  0.00  0.00    -0.162 NA
ATOM     14  C7  <0> d          -5.369  -3.396   0.036  0.00  0.00     0.024 A 
ATOM     15  C6  <0> d          -4.322  -4.304   0.026  0.00  0.00    -0.062 A 
ATOM     16  H8  <0> d          -6.389  -3.749   0.043  0.00  0.00     0.117 H 
ATOM     17  C5  <0> d          -3.026  -3.808   0.016  0.00  0.00    -0.046 A 
ATOM     18  H7  <0> d          -4.510  -5.368   0.026  0.00  0.00     0.085 H 
ATOM     19  H6  <0> d          -2.175  -4.473   0.009  0.00  0.00     0.087 H 
ENDBRANCH   1  11
TORSDOF 4
