REMARK  1 active torsions:
REMARK  status: ('A' for Active; 'I' for Inactive)
REMARK    1  A    between atoms: C4_4  and  O1_8 
ROOT
ATOM      1  C1  <0> d          -0.013   1.076   0.008  0.00  0.00    -0.078 A 
ATOM      2  C2  <0> d          -1.220   1.750   0.017  0.00  0.00    -0.043 A 
ATOM      3  C3  <0> d          -1.242   3.132   0.031  0.00  0.00     0.151 A 
ATOM      4  C4  <0> d          -0.049   3.844   0.024  0.00  0.00     0.126 A 
ATOM      5  C5  <0> d           1.161   3.165   0.008  0.00  0.00     0.070 A 
ATOM      6  C6  <0> d           1.176   1.782   0.000  0.00  0.00    -0.059 A 
ATOM      7 Cl1  <0> d           2.654   4.050   0.000  0.00  0.00    -0.081 Cl
ATOM      8  F1  <0> d          -2.422   3.790   0.046  0.00  0.00    -0.203 F 
ATOM      9  H1  <0> d           0.002  -0.004   0.002  0.00  0.00     0.083 H 
ATOM     10  H2  <0> d          -2.147   1.195   0.019  0.00  0.00     0.088 H 
ATOM     11  H3  <0> d           2.117   1.253  -0.011  0.00  0.00     0.086 H 
ENDROOT
BRANCH   4  12
ATOM     12  O1  <0> d          -0.067   5.204   0.032  0.00  0.00    -0.356 OA
ATOM     13  H4  <0> d          -0.080   5.602  -0.849  0.00  0.00     0.218 HD
ENDBRANCH   4  12
TORSDOF 1
