REMARK  5 active torsions:
REMARK  status: ('A' for Active; 'I' for Inactive)
REMARK    1  A    between atoms: C1_1  and  O1_2 
REMARK    2  A    between atoms: O1_2  and  C2_3 
REMARK    3  A    between atoms: C2_3  and  C3_4 
REMARK    4  A    between atoms: C3_4  and  C4_6 
REMARK    5  A    between atoms: C3_4  and  O2_9 
ROOT
ATOM      1  C4  <0> d          -0.013   1.086   0.008  0.00  0.00     0.040 C 
ATOM      2  C5  <0> d          -0.725   1.573  -1.185  0.00  0.00     0.061 C 
ATOM      3  N1  <0> d          -1.274   1.950  -2.105  0.00  0.00    -0.197 NA
ATOM      4  H7  <0> d           0.002  -0.004   0.002  0.00  0.00     0.059 H 
ATOM      5  H8  <0> d           1.010   1.463   0.000  0.00  0.00     0.059 H 
ENDROOT
BRANCH   1   6
ATOM      6  C3  <0> d          -0.729   1.579   1.267  0.00  0.00     0.067 C 
ATOM      7  H1  <0> d          -1.776   1.277   1.232  0.00  0.00     0.087 H 
BRANCH   6   8
ATOM      8  C2  <0> d          -0.064   0.971   2.503  0.00  0.00     0.043 C 
ATOM      9  H5  <0> d          -0.047  -0.115   2.410  0.00  0.00     0.078 H 
ATOM     10  H6  <0> d           0.957   1.344   2.587  0.00  0.00     0.078 H 
BRANCH   8  11
ATOM     11  O1  <0> d          -0.802   1.338   3.670  0.00  0.00    -0.393 OA
BRANCH  11  12
ATOM     12  C1  <0> d          -0.262   0.819   4.887  0.00  0.00     0.004 C 
ATOM     13  H2  <0> d           0.754   1.188   5.021  0.00  0.00     0.066 H 
ATOM     14  H3  <0> d          -0.879   1.141   5.726  0.00  0.00     0.066 H 
ATOM     15  H4  <0> d          -0.250  -0.271   4.843  0.00  0.00     0.066 H 
ENDBRANCH  11  12
ENDBRANCH   8  11
ENDBRANCH   6   8
BRANCH   6  16
ATOM     16  O2  <0> d          -0.647   3.004   1.334  0.00  0.00    -0.393 OA
ATOM     17  H9  <0> d           0.258   3.345   1.368  0.00  0.00     0.210 HD
ENDBRANCH   6  16
ENDBRANCH   1   6
TORSDOF 5
