REMARK  5 active torsions:
REMARK  status: ('A' for Active; 'I' for Inactive)
REMARK    1  A    between atoms: C1_1  and  C2_2 
REMARK    2  A    between atoms: C1_1  and  O2_9 
REMARK    3  A    between atoms: C2_2  and  O1_3 
REMARK    4  A    between atoms: O1_3  and  C3_4 
REMARK    5  A    between atoms: C3_4  and  C4_5 
ROOT
ATOM      1  C2  <0> d           1.145   3.085   0.008  0.00  0.00     0.039 C 
ATOM      2  H3  <0> d           2.130   3.542  -0.089  0.00  0.00     0.077 H 
ATOM      3  H4  <0> d           0.516   3.397  -0.827  0.00  0.00     0.077 H 
ENDROOT
BRANCH   1   4
ATOM      4  C1  <0> d           1.286   1.562  -0.002  0.00  0.00     0.036 C 
ATOM      5  H1  <0> d           1.840   1.243   0.881  0.00  0.00     0.077 H 
ATOM      6  H2  <0> d           1.823   1.252  -0.899  0.00  0.00     0.077 H 
BRANCH   4   7
ATOM      7  O2  <0> d          -0.011   0.963   0.007  0.00  0.00    -0.399 OA
ATOM      8  H7  <0> d           0.002  -0.004   0.002  0.00  0.00     0.209 HD
ENDBRANCH   4   7
ENDBRANCH   1   4
BRANCH   1   9
ATOM      9  O1  <0> d           0.546   3.500   1.237  0.00  0.00    -0.380 OA
BRANCH   9  10
ATOM     10  C3  <0> d           0.367   4.914   1.348  0.00  0.00     0.109 C 
ATOM     11  H5  <0> d           1.336   5.409   1.280  0.00  0.00     0.088 H 
ATOM     12  H6  <0> d          -0.277   5.263   0.542  0.00  0.00     0.088 H 
BRANCH  10  13
ATOM     13  C4  <0> d          -0.278   5.242   2.696  0.00  0.00     0.408 C 
ATOM     14  F1  <0> d           0.549   4.793   3.731  0.00  0.00    -0.169 F 
ATOM     15  F2  <0> d          -0.453   6.625   2.805  0.00  0.00    -0.169 F 
ATOM     16  F3  <0> d          -1.522   4.606   2.784  0.00  0.00    -0.169 F 
ENDBRANCH  10  13
ENDBRANCH   9  10
ENDBRANCH   1   9
TORSDOF 5
