REMARK  5 active torsions:
REMARK  status: ('A' for Active; 'I' for Inactive)
REMARK    1  A    between atoms: C1_1  and  C2_2 
REMARK    2  A    between atoms: C4_5  and  C5_7 
REMARK    3  A    between atoms: C5_7  and  C6_8 
REMARK    4  A    between atoms: C6_8  and  C7_9 
REMARK    5  A    between atoms: C6_8  and  C8_10 
ROOT
ATOM      1  C5  <0> d          -4.113   2.491   2.506  0.00  0.00    -0.016 C 
ATOM      2  H5  <0> d          -4.237   3.285   3.258  0.00  0.00     0.043 H 
ATOM      3  H6  <0> d          -4.546   2.821   1.550  0.00  0.00     0.043 H 
ENDROOT
BRANCH   1   4
ATOM      4  C4  <0> d          -2.646   2.202   2.320  0.00  0.00     0.075 A 
ATOM      5  S1  <0> d          -1.351   2.342   3.469  0.00  0.00    -0.085 SA
ATOM      6  C3  <0> d          -0.028   1.807   2.393  0.00  0.00    -0.020 A 
ATOM      7  C2  <0> d          -0.718   1.572   1.248  0.00  0.00     0.038 A 
ATOM      8  H4  <0> d           1.027   1.701   2.597  0.00  0.00     0.098 H 
ATOM      9  N1  <0> d          -2.018   1.784   1.245  0.00  0.00    -0.251 NA
BRANCH   7  10
ATOM     10  C1  <0> d          -0.013   1.086   0.008  0.00  0.00    -0.035 C 
ATOM     11  H1  <0> d           1.061   0.973   0.218  0.00  0.00     0.035 H 
ATOM     12  H2  <0> d          -0.153   1.815  -0.803  0.00  0.00     0.035 H 
ATOM     13  H3  <0> d          -0.431   0.115  -0.295  0.00  0.00     0.035 H 
ENDBRANCH   7  10
ENDBRANCH   1   4
BRANCH   1  14
ATOM     14  C6  <0> d          -4.827   1.224   2.980  0.00  0.00    -0.056 C 
ATOM     15  H7  <0> d          -4.335   0.845   3.889  0.00  0.00     0.039 H 
BRANCH  14  16
ATOM     16  C7  <0> d          -6.290   1.548   3.289  0.00  0.00    -0.073 C 
ATOM     17  H8  <0> d          -6.803   0.637   3.630  0.00  0.00     0.028 H 
ATOM     18  H9  <0> d          -6.781   1.928   2.381  0.00  0.00     0.028 H 
ATOM     19  H10 <0> d          -6.337   2.313   4.079  0.00  0.00     0.028 H 
ENDBRANCH  14  16
BRANCH  14  20
ATOM     20  C8  <0> d          -4.761   0.161   1.882  0.00  0.00    -0.073 C 
ATOM     21  H11 <0> d          -5.274  -0.751   2.223  0.00  0.00     0.028 H 
ATOM     22  H12 <0> d          -3.709  -0.072   1.661  0.00  0.00     0.028 H 
ATOM     23  H13 <0> d          -5.252   0.540   0.974  0.00  0.00     0.028 H 
ENDBRANCH  14  20
ENDBRANCH   1  14
TORSDOF 5
