REMARK  2 active torsions:
REMARK  status: ('A' for Active; 'I' for Inactive)
REMARK    1  A    between atoms: C1_1  and  C2_2 
REMARK    2  A    between atoms: C2_2  and  C7_13 
ROOT
ATOM      1  C2  <0> d           1.338   1.893  -0.001  0.00  0.00     0.158 C 
ATOM      2  O1  <0> d          -0.017   1.433   0.010  0.00  0.00    -0.345 OA
ATOM      3  C3  <0> d           0.002  -0.004   0.002  0.00  0.00     0.097 C 
ATOM      4  H1  <0> d          -0.545  -0.437  -0.836  0.00  0.00     0.091 H 
ATOM      5  C4  <0> d          -0.472  -0.499   1.387  0.00  0.00     0.056 C 
ATOM      6  O2  <0> d           0.485  -1.507   1.806  0.00  0.00    -0.317 OA
ATOM      7  C5  <0> d           1.611  -1.451   1.087  0.00  0.00     0.290 C 
ATOM      8  O3  <0> d           2.578  -2.154   1.265  0.00  0.00    -0.262 OA
ATOM      9  C6  <0> d           1.506  -0.387   0.025  0.00  0.00     0.152 C 
ATOM     10  H2  <0> d           1.852  -0.745  -0.945  0.00  0.00     0.103 H 
ATOM     11  O4  <0> d           2.174   0.813   0.442  0.00  0.00    -0.338 OA
ATOM     12  H6  <0> d          -0.480   0.328   2.098  0.00  0.00     0.079 H 
ATOM     13  H7  <0> d          -1.467  -0.936   1.308  0.00  0.00     0.079 H 
ENDROOT
BRANCH   1  14
ATOM     14  C1  <0> d           1.734   2.305  -1.420  0.00  0.00    -0.025 C 
ATOM     15  H3  <0> d           1.079   3.107  -1.761  0.00  0.00     0.035 H 
ATOM     16  H4  <0> d           2.767   2.654  -1.422  0.00  0.00     0.035 H 
ATOM     17  H5  <0> d           1.639   1.448  -2.087  0.00  0.00     0.035 H 
ENDBRANCH   1  14
BRANCH   1  18
ATOM     18  C7  <0> d           1.488   3.085   0.946  0.00  0.00    -0.025 C 
ATOM     19  H8  <0> d           1.218   2.782   1.958  0.00  0.00     0.035 H 
ATOM     20  H9  <0> d           2.522   3.431   0.934  0.00  0.00     0.035 H 
ATOM     21  H10 <0> d           0.832   3.892   0.621  0.00  0.00     0.035 H 
ENDBRANCH   1  18
TORSDOF 2
