REMARK  4 active torsions:
REMARK  status: ('A' for Active; 'I' for Inactive)
REMARK    1  A    between atoms: C1_1  and  O1_2 
REMARK    2  A    between atoms: O1_2  and  C2_3 
REMARK    3  A    between atoms: C6_8  and  O2_9 
REMARK    4  A    between atoms: O2_9  and  C7_10 
ROOT
ATOM      1  C2  <0> d           0.656  -1.998  -1.120  0.00  0.00     0.121 A 
ATOM      2  C3  <0> d           1.276  -2.598  -2.207  0.00  0.00    -0.045 A 
ATOM      3  C4  <0> d           1.822  -1.784  -3.189  0.00  0.00    -0.063 A 
ATOM      4  C5  <0> d           1.733  -0.413  -3.058  0.00  0.00     0.005 A 
ATOM      5  N1  <0> d           1.134   0.131  -2.015  0.00  0.00    -0.235 NA
ATOM      6  C6  <0> d           0.605  -0.607  -1.055  0.00  0.00     0.198 A 
ATOM      7  H4  <0> d           1.332  -3.674  -2.286  0.00  0.00     0.088 H 
ATOM      8  H5  <0> d           2.311  -2.219  -4.048  0.00  0.00     0.085 H 
ATOM      9  H6  <0> d           2.157   0.224  -3.820  0.00  0.00     0.114 H 
ENDROOT
BRANCH   1  10
ATOM     10  O1  <0> d           0.108  -2.755  -0.133  0.00  0.00    -0.352 OA
BRANCH  10  11
ATOM     11  C1  <0> d           0.203  -4.174  -0.275  0.00  0.00     0.011 C 
ATOM     12  H1  <0> d          -0.298  -4.481  -1.193  0.00  0.00     0.067 H 
ATOM     13  H2  <0> d           1.252  -4.465  -0.319  0.00  0.00     0.067 H 
ATOM     14  H3  <0> d          -0.273  -4.657   0.578  0.00  0.00     0.067 H 
ENDBRANCH  10  11
ENDBRANCH   1  10
BRANCH   6  15
ATOM     15  O2  <0> d           0.002  -0.004   0.002  0.00  0.00    -0.337 OA
BRANCH  15  16
ATOM     16  C7  <0> d          -0.017   1.425   0.010  0.00  0.00     0.012 C 
ATOM     17  H7  <0> d           1.005   1.802   0.002  0.00  0.00     0.067 H 
ATOM     18  H8  <0> d          -0.544   1.786  -0.873  0.00  0.00     0.067 H 
ATOM     19  H9  <0> d          -0.527   1.776   0.907  0.00  0.00     0.067 H 
ENDBRANCH  15  16
ENDBRANCH   6  15
TORSDOF 4
