REMARK  5 active torsions:
REMARK  status: ('A' for Active; 'I' for Inactive)
REMARK    1  A    between atoms: C1_1  and  C2_2 
REMARK    2  A    between atoms: C2_2  and  C3_3 
REMARK    3  A    between atoms: C3_3  and  C4_4 
REMARK       I    between atoms: C4_4  and  N1_6 
REMARK    4  A    between atoms: N1_6  and  C5_7 
REMARK    5  A    between atoms: C5_7  and  C6_8 
ROOT
ATOM      1  C3  <0> d          -1.330   1.944   0.019  0.00  0.00     0.009 C 
ATOM      2  H6  <0> d          -1.392   2.565   0.913  0.00  0.00     0.047 H 
ATOM      3  H7  <0> d          -1.400   2.575  -0.867  0.00  0.00     0.047 H 
ENDROOT
BRANCH   1   4
ATOM      4  C2  <0> d          -2.479   0.934   0.019  0.00  0.00    -0.061 C 
ATOM      5  H4  <0> d          -2.417   0.313  -0.875  0.00  0.00     0.033 H 
ATOM      6  H5  <0> d          -2.408   0.304   0.905  0.00  0.00     0.033 H 
BRANCH   4   7
ATOM      7  C1  <0> d          -3.814   1.681   0.029  0.00  0.00    -0.076 C 
ATOM      8  H1  <0> d          -3.876   2.302   0.923  0.00  0.00     0.027 H 
ATOM      9  H2  <0> d          -3.885   2.312  -0.857  0.00  0.00     0.027 H 
ATOM     10  H3  <0> d          -4.633   0.962   0.029  0.00  0.00     0.027 H 
ENDBRANCH   4   7
ENDBRANCH   1   4
BRANCH   1  11
ATOM     11  C4  <0> d          -0.014   1.209   0.009  0.00  0.00     0.217 C 
ATOM     12  O1  <0> d           0.002  -0.004   0.002  0.00  0.00    -0.274 OA
ATOM     13  N1  <0> d           1.143   1.898   0.001  0.00  0.00    -0.351 N 
ATOM     14  H8  <0> d           1.130   2.868   0.007  0.00  0.00     0.163 HD
BRANCH  13  15
ATOM     15  C5  <0> d           2.422   1.183  -0.015  0.00  0.00     0.075 C 
ATOM     16  H9  <0> d           2.497   0.553   0.871  0.00  0.00     0.080 H 
ATOM     17  H10 <0> d           2.480   0.562  -0.909  0.00  0.00     0.080 H 
BRANCH  15  18
ATOM     18  C6  <0> d           3.554   2.178  -0.020  0.00  0.00     0.191 C 
ATOM     19  O2  <0> d           3.317   3.363  -0.012  0.00  0.00    -0.647 OA
ATOM     20  O3  <0> d           4.825   1.748  -0.035  0.00  0.00    -0.647 OA
ENDBRANCH  15  18
ENDBRANCH  13  15
ENDBRANCH   1  11
TORSDOF 5
