REMARK  4 active torsions:
REMARK  status: ('A' for Active; 'I' for Inactive)
REMARK    1  A    between atoms: C1_1  and  C2_2 
REMARK    2  A    between atoms: C2_2  and  C3_3 
REMARK    3  A    between atoms: C2_2  and  N1_4 
REMARK    4  A    between atoms: N1_4  and  N2_5 
ROOT
ATOM      1  C2  <0> d          -0.654  -2.247  -0.004  0.00  0.00     0.004 C 
ATOM      2  H4  <0> d           0.262  -2.355   0.576  0.00  0.00     0.065 H 
ENDROOT
BRANCH   1   3
ATOM      3  C1  <0> d          -1.753  -3.116   0.612  0.00  0.00    -0.060 C 
ATOM      4  H1  <0> d          -2.670  -3.007   0.032  0.00  0.00     0.029 H 
ATOM      5  H2  <0> d          -1.439  -4.159   0.603  0.00  0.00     0.029 H 
ATOM      6  H3  <0> d          -1.934  -2.799   1.639  0.00  0.00     0.029 H 
ENDBRANCH   1   3
BRANCH   1   7
ATOM      7  C3  <0> d          -0.401  -2.692  -1.446  0.00  0.00    -0.060 C 
ATOM      8  H5  <0> d           0.382  -2.073  -1.884  0.00  0.00     0.029 H 
ATOM      9  H6  <0> d          -0.086  -3.735  -1.454  0.00  0.00     0.029 H 
ATOM     10  H7  <0> d          -1.317  -2.583  -2.026  0.00  0.00     0.029 H 
ENDBRANCH   1   7
BRANCH   1  11
ATOM     11  N1  <0> d          -1.078  -0.841   0.008  0.00  0.00    -0.228 NA
ATOM     12  H8  <0> d          -1.678  -0.650   0.796  0.00  0.00     0.147 HD
BRANCH  11  13
ATOM     13  N2  <0> d           0.002  -0.004   0.002  0.00  0.00    -0.261 N 
ATOM     14  C5  <0> d           1.309  -0.361  -0.012  0.00  0.00     0.103 A 
ATOM     15  N4  <0> d           2.012   0.739  -0.013  0.00  0.00    -0.143 NA
ATOM     16  H10 <0> d           1.698  -1.368  -0.021  0.00  0.00     0.148 H 
ATOM     17  N3  <0> d           1.224   1.756  -0.000  0.00  0.00    -0.143 NA
ATOM     18  C4  <0> d          -0.016   1.351   0.009  0.00  0.00     0.103 A 
ATOM     19  H9  <0> d          -0.895   1.979   0.017  0.00  0.00     0.148 H 
ENDBRANCH  11  13
ENDBRANCH   1  11
TORSDOF 4
