REMARK  8 active torsions:
REMARK  status: ('A' for Active; 'I' for Inactive)
REMARK    1  A    between atoms: C1_1  and  C2_2 
REMARK    2  A    between atoms: C2_2  and  C3_3 
REMARK    3  A    between atoms: C3_3  and  C4_4 
REMARK    4  A    between atoms: C4_4  and  C5_6 
REMARK    5  A    between atoms: C4_4  and  C6_7 
REMARK    6  A    between atoms: C6_7  and  O2_9 
REMARK    7  A    between atoms: O2_9  and  C7_10 
REMARK    8  A    between atoms: C7_10  and  C8_11 
ROOT
ATOM      1  C4  <0> d          -1.329   1.940   0.019  0.00  0.00     0.027 C 
ATOM      2  H1  <0> d          -1.391   2.561   0.913  0.00  0.00     0.054 H 
ENDROOT
BRANCH   1   3
ATOM      3  C3  <0> d          -2.479   0.930   0.019  0.00  0.00    -0.054 C 
ATOM      4  H7  <0> d          -2.470   0.369  -0.916  0.00  0.00     0.034 H 
ATOM      5  H8  <0> d          -2.359   0.243   0.856  0.00  0.00     0.034 H 
BRANCH   3   6
ATOM      6  C2  <0> d          -3.810   1.672   0.155  0.00  0.00    -0.068 C 
ATOM      7  H5  <0> d          -3.819   2.233   1.089  0.00  0.00     0.032 H 
ATOM      8  H6  <0> d          -3.930   2.359  -0.683  0.00  0.00     0.032 H 
BRANCH   6   9
ATOM      9  C1  <0> d          -4.959   0.662   0.155  0.00  0.00    -0.076 C 
ATOM     10  H2  <0> d          -4.950   0.101  -0.780  0.00  0.00     0.027 H 
ATOM     11  H3  <0> d          -4.839  -0.025   0.992  0.00  0.00     0.027 H 
ATOM     12  H4  <0> d          -5.907   1.191   0.252  0.00  0.00     0.027 H 
ENDBRANCH   6   9
ENDBRANCH   3   6
ENDBRANCH   1   3
BRANCH   1  13
ATOM     13  C5  <0> d          -1.428   2.825  -1.225  0.00  0.00    -0.064 C 
ATOM     14  H9  <0> d          -1.366   2.204  -2.119  0.00  0.00     0.028 H 
ATOM     15  H10 <0> d          -2.380   3.357  -1.218  0.00  0.00     0.028 H 
ATOM     16  H11 <0> d          -0.610   3.545  -1.225  0.00  0.00     0.028 H 
ENDBRANCH   1  13
BRANCH   1  17
ATOM     17  C6  <0> d          -0.014   1.204   0.009  0.00  0.00     0.262 C 
ATOM     18  O1  <0> d           0.002  -0.004   0.002  0.00  0.00    -0.265 OA
BRANCH  17  19
ATOM     19  O2  <0> d           1.139   1.891   0.001  0.00  0.00    -0.322 OA
BRANCH  19  20
ATOM     20  C7  <0> d           2.367   1.117  -0.015  0.00  0.00     0.025 C 
ATOM     21  H12 <0> d           2.409   0.484   0.872  0.00  0.00     0.074 H 
ATOM     22  H13 <0> d           2.392   0.493  -0.908  0.00  0.00     0.074 H 
BRANCH  20  23
ATOM     23  C8  <0> d           3.568   2.065  -0.021  0.00  0.00    -0.056 C 
ATOM     24  H14 <0> d           3.526   2.698  -0.907  0.00  0.00     0.030 H 
ATOM     25  H15 <0> d           3.543   2.689   0.873  0.00  0.00     0.030 H 
ATOM     26  H16 <0> d           4.490   1.484  -0.033  0.00  0.00     0.030 H 
ENDBRANCH  20  23
ENDBRANCH  19  20
ENDBRANCH  17  19
ENDBRANCH   1  17
TORSDOF 8
