REMARK  2 active torsions:
REMARK  status: ('A' for Active; 'I' for Inactive)
REMARK    1  A    between atoms: C1_1  and  C2_2 
REMARK    2  A    between atoms: C2_2  and  N1_3 
ROOT
ATOM      1  N1  <0> d           0.574   3.172   0.013  0.00  0.00    -0.280 N 
ATOM      2  C3  <0> d           1.054   1.910   0.002  0.00  0.00     0.001 A 
ATOM      3  C4  <0> d          -0.013   1.076   0.008  0.00  0.00    -0.026 A 
ATOM      4  C5  <0> d          -1.151   1.917   0.017  0.00  0.00     0.158 A 
ATOM      5  N2  <0> d          -0.710   3.160   0.025  0.00  0.00    -0.162 NA
ATOM      6  C6  <0> d          -2.520   1.498   0.020  0.00  0.00     0.121 C 
ATOM      7  N3  <0> d          -3.606   1.166   0.023  0.00  0.00    -0.190 NA
ATOM      8  H6  <0> d           2.094   1.620  -0.009  0.00  0.00     0.114 H 
ATOM      9  H7  <0> d           0.002  -0.004   0.002  0.00  0.00     0.090 H 
ENDROOT
BRANCH   1  10
ATOM     10  C2  <0> d           1.400   4.382   0.012  0.00  0.00     0.013 C 
ATOM     11  H4  <0> d           1.255   4.922   0.947  0.00  0.00     0.066 H 
ATOM     12  H5  <0> d           2.450   4.105  -0.089  0.00  0.00     0.066 H 
BRANCH  10  13
ATOM     13  C1  <0> d           0.994   5.276  -1.162  0.00  0.00    -0.059 C 
ATOM     14  H1  <0> d           1.608   6.176  -1.163  0.00  0.00     0.029 H 
ATOM     15  H2  <0> d           1.139   4.735  -2.097  0.00  0.00     0.029 H 
ATOM     16  H3  <0> d          -0.056   5.552  -1.061  0.00  0.00     0.029 H 
ENDBRANCH  10  13
ENDBRANCH   1  10
TORSDOF 2
