REMARK  5 active torsions:
REMARK  status: ('A' for Active; 'I' for Inactive)
REMARK    1  A    between atoms: C1_1  and  C2_2 
REMARK    2  A    between atoms: C2_2  and  N1_3 
REMARK    3  A    between atoms: N1_3  and  C3_4 
REMARK    4  A    between atoms: N1_3  and  C4_5 
REMARK    5  A    between atoms: C9_10  and  N2_11 
ROOT
ATOM      1  C4  <0> d          -2.018  -0.760   1.230  0.00  0.00     0.056 A 
ATOM      2  C5  <0> d          -2.758   0.240   1.842  0.00  0.00    -0.055 A 
ATOM      3  C6  <0> d          -3.395  -0.008   3.044  0.00  0.00    -0.081 A 
ATOM      4  C7  <0> d          -3.296  -1.252   3.639  0.00  0.00    -0.081 A 
ATOM      5  C8  <0> d          -2.560  -2.255   3.036  0.00  0.00    -0.056 A 
ATOM      6  C9  <0> d          -1.922  -2.016   1.828  0.00  0.00     0.052 A 
ATOM      7  H9  <0> d          -2.837   1.213   1.379  0.00  0.00     0.087 H 
ATOM      8  H10 <0> d          -3.970   0.772   3.519  0.00  0.00     0.083 H 
ATOM      9  H11 <0> d          -3.795  -1.440   4.578  0.00  0.00     0.083 H 
ATOM     10  H12 <0> d          -2.484  -3.225   3.504  0.00  0.00     0.087 H 
ENDROOT
BRANCH   1  11
ATOM     11  N1  <0> d          -1.372  -0.511   0.012  0.00  0.00    -0.384 N 
BRANCH  11  12
ATOM     12  C2  <0> d           0.002  -0.004   0.002  0.00  0.00    -0.009 C 
ATOM     13  H4  <0> d           0.512  -0.356  -0.895  0.00  0.00     0.063 H 
ATOM     14  H5  <0> d           0.529  -0.365   0.885  0.00  0.00     0.063 H 
BRANCH  12  15
ATOM     15  C1  <0> d          -0.019   1.526   0.010  0.00  0.00    -0.061 C 
ATOM     16  H1  <0> d           1.004   1.903   0.003  0.00  0.00     0.029 H 
ATOM     17  H2  <0> d          -0.546   1.887  -0.873  0.00  0.00     0.029 H 
ATOM     18  H3  <0> d          -0.529   1.877   0.907  0.00  0.00     0.029 H 
ENDBRANCH  12  15
ENDBRANCH  11  12
BRANCH  11  19
ATOM     19  C3  <0> d          -2.072  -0.758  -1.251  0.00  0.00    -0.018 C 
ATOM     20  H6  <0> d          -1.889  -1.783  -1.573  0.00  0.00     0.056 H 
ATOM     21  H7  <0> d          -3.142  -0.606  -1.110  0.00  0.00     0.056 H 
ATOM     22  H8  <0> d          -1.704  -0.068  -2.010  0.00  0.00     0.056 H 
ENDBRANCH  11  19
ENDBRANCH   1  11
BRANCH   6  23
ATOM     23  N2  <0> d          -1.181  -3.032   1.213  0.00  0.00    -0.397 N 
ATOM     24  H13 <0> d          -0.732  -2.863   0.370  0.00  0.00     0.156 HD
ATOM     25  H14 <0> d          -1.115  -3.906   1.630  0.00  0.00     0.156 HD
ENDBRANCH   6  23
TORSDOF 5
