REMARK  9 active torsions:
REMARK  status: ('A' for Active; 'I' for Inactive)
REMARK    1  A    between atoms: C1_1  and  C2_2 
REMARK    2  A    between atoms: C2_2  and  C3_3 
REMARK    3  A    between atoms: C3_3  and  C4_4 
REMARK    4  A    between atoms: C3_3  and  C5_5 
REMARK    5  A    between atoms: C3_3  and  O2_10 
REMARK    6  A    between atoms: C5_5  and  C6_6 
REMARK    7  A    between atoms: C5_5  and  C7_7 
REMARK    8  A    between atoms: C5_5  and  O1_9 
REMARK    9  A    between atoms: C7_7  and  C8_8 
ROOT
ATOM      1  C3  <0> d           0.002  -0.004   0.002  0.00  0.00     0.084 C 
ENDROOT
BRANCH   1   2
ATOM      2  C2  <0> d          -1.433  -0.534   0.013  0.00  0.00    -0.037 C 
ATOM      3  H4  <0> d          -1.419  -1.623   0.007  0.00  0.00     0.036 H 
ATOM      4  H5  <0> d          -1.944  -0.182   0.910  0.00  0.00     0.036 H 
BRANCH   2   5
ATOM      5  C1  <0> d          -2.173  -0.027  -1.227  0.00  0.00    -0.074 C 
ATOM      6  H1  <0> d          -2.188   1.063  -1.221  0.00  0.00     0.027 H 
ATOM      7  H2  <0> d          -1.663  -0.378  -2.123  0.00  0.00     0.027 H 
ATOM      8  H3  <0> d          -3.196  -0.404  -1.219  0.00  0.00     0.027 H 
ENDBRANCH   2   5
ENDBRANCH   1   2
BRANCH   1   9
ATOM      9  C4  <0> d          -0.019   1.526   0.010  0.00  0.00    -0.045 C 
ATOM     10  H6  <0> d           1.004   1.903   0.003  0.00  0.00     0.031 H 
ATOM     11  H7  <0> d          -0.546   1.887  -0.873  0.00  0.00     0.031 H 
ATOM     12  H8  <0> d          -0.529   1.877   0.907  0.00  0.00     0.031 H 
ENDBRANCH   1   9
BRANCH   1  13
ATOM     13  C5  <0> d           0.742  -0.511   1.242  0.00  0.00     0.084 C 
BRANCH  13  14
ATOM     14  C6  <0> d          -0.042  -0.124   2.497  0.00  0.00    -0.045 C 
ATOM     15  H9  <0> d          -1.034  -0.572   2.458  0.00  0.00     0.031 H 
ATOM     16  H10 <0> d           0.486  -0.485   3.380  0.00  0.00     0.031 H 
ATOM     17  H11 <0> d          -0.134   0.961   2.548  0.00  0.00     0.031 H 
ENDBRANCH  13  14
BRANCH  13  18
ATOM     18  C7  <0> d           2.136   0.118   1.296  0.00  0.00    -0.037 C 
ATOM     19  H12 <0> d           2.694  -0.158   0.402  0.00  0.00     0.036 H 
ATOM     20  H13 <0> d           2.043   1.203   1.346  0.00  0.00     0.036 H 
BRANCH  18  21
ATOM     21  C8  <0> d           2.876  -0.389   2.536  0.00  0.00    -0.074 C 
ATOM     22  H14 <0> d           2.968  -1.474   2.485  0.00  0.00     0.027 H 
ATOM     23  H15 <0> d           3.869   0.059   2.574  0.00  0.00     0.027 H 
ATOM     24  H16 <0> d           2.317  -0.113   3.430  0.00  0.00     0.027 H 
ENDBRANCH  18  21
ENDBRANCH  13  18
BRANCH  13  25
ATOM     25  O1  <0> d           0.863  -1.933   1.175  0.00  0.00    -0.387 OA
ATOM     26  H17 <0> d           1.350  -2.251   0.403  0.00  0.00     0.210 HD
ENDBRANCH  13  25
ENDBRANCH   1  13
BRANCH   1  27
ATOM     27  O2  <0> d           0.671  -0.465  -1.174  0.00  0.00    -0.387 OA
ATOM     28  H18 <0> d           0.722  -1.428  -1.246  0.00  0.00     0.210 HD
ENDBRANCH   1  27
TORSDOF 9
