REMARK  1 active torsions:
REMARK  status: ('A' for Active; 'I' for Inactive)
REMARK       I    between atoms: N1_4  and  C5_6 
REMARK    1  A    between atoms: C5_6  and  O2_8 
ROOT
ATOM      1  C1  <0> d          -2.664   3.501   0.034  0.00  0.00    -0.066 A 
ATOM      2  C2  <0> d          -3.354   2.269   0.030  0.00  0.00    -0.066 A 
ATOM      3  C3  <0> d          -2.432   1.288   0.021  0.00  0.00    -0.010 A 
ATOM      4  N1  <0> d          -1.191   1.868   0.018  0.00  0.00    -0.280 N 
ATOM      5  C4  <0> d          -1.346   3.229   0.032  0.00  0.00    -0.010 A 
ATOM      6  C5  <0> d          -0.014   1.210   0.009  0.00  0.00     0.260 C 
ATOM      7  O1  <0> d           0.002  -0.004   0.002  0.00  0.00    -0.631 OA
ATOM      8  H1  <0> d          -3.113   4.483   0.041  0.00  0.00     0.085 H 
ATOM      9  H2  <0> d          -4.426   2.138   0.035  0.00  0.00     0.085 H 
ATOM     10  H3  <0> d          -2.636   0.227   0.015  0.00  0.00     0.112 H 
ATOM     11  H4  <0> d          -0.549   3.958   0.038  0.00  0.00     0.112 H 
ENDROOT
BRANCH   6  12
ATOM     12  O2  <0> d           1.142   1.899   0.001  0.00  0.00    -0.759 OA
ATOM     13  H5  <0> d           1.960   1.383  -0.009  0.00  0.00     0.169 HD
ENDBRANCH   6  12
TORSDOF 1
