REMARK  5 active torsions:
REMARK  status: ('A' for Active; 'I' for Inactive)
REMARK    1  A    between atoms: C1_1  and  C2_3 
REMARK    2  A    between atoms: C1_1  and  C4_9 
REMARK    3  A    between atoms: C1_1  and  O4_12 
REMARK    4  A    between atoms: C2_3  and  C3_5 
REMARK    5  A    between atoms: C2_3  and  O2_8 
REMARK       I    between atoms: C3_5  and  N1_7 
REMARK       I    between atoms: C4_9  and  N2_11 
ROOT
ATOM      1  C1  <0> d          -0.013   1.086   0.008  0.00  0.00     0.145 C 
ATOM      2  H1  <0> d           0.002  -0.004   0.002  0.00  0.00     0.102 H 
ENDROOT
BRANCH   1   3
ATOM      3  C2  <0> d           1.423   1.615  -0.003  0.00  0.00     0.145 C 
ATOM      4  H2  <0> d           1.408   2.705   0.003  0.00  0.00     0.102 H 
BRANCH   3   5
ATOM      5  C3  <0> d           2.151   1.116   1.218  0.00  0.00     0.247 C 
ATOM      6  O1  <0> d           3.091   0.359   1.096  0.00  0.00    -0.271 OA
ATOM      7  N1  <0> d           1.759   1.511   2.446  0.00  0.00    -0.368 N 
ATOM      8  H3  <0> d           1.007   2.116   2.543  0.00  0.00     0.159 HD
ATOM      9  H4  <0> d           2.228   1.189   3.231  0.00  0.00     0.159 HD
ENDBRANCH   3   5
BRANCH   3  10
ATOM     10  O2  <0> d           2.091   1.155  -1.179  0.00  0.00    -0.383 OA
ATOM     11  H5  <0> d           2.142   0.192  -1.250  0.00  0.00     0.210 HD
ENDBRANCH   3  10
ENDBRANCH   1   3
BRANCH   1  12
ATOM     12  C4  <0> d          -0.742   1.585  -1.213  0.00  0.00     0.247 C 
ATOM     13  O3  <0> d          -1.681   2.342  -1.091  0.00  0.00    -0.271 OA
ATOM     14  N2  <0> d          -0.349   1.190  -2.440  0.00  0.00    -0.368 N 
ATOM     15  H6  <0> d           0.403   0.585  -2.538  0.00  0.00     0.159 HD
ATOM     16  H7  <0> d          -0.818   1.512  -3.226  0.00  0.00     0.159 HD
ENDBRANCH   1  12
BRANCH   1  17
ATOM     17  O4  <0> d          -0.682   1.547   1.184  0.00  0.00    -0.383 OA
ATOM     18  H8  <0> d          -0.732   2.510   1.256  0.00  0.00     0.210 HD
ENDBRANCH   1  17
TORSDOF 5
