REMARK  2 active torsions:
REMARK  status: ('A' for Active; 'I' for Inactive)
REMARK    1  A    between atoms: C1_1  and  C2_2 
REMARK    2  A    between atoms: C2_2  and  C3_3 
REMARK       I    between atoms: C3_3  and  N1_5 
ROOT
ATOM      1  C3  <0> d          -0.718   1.572   1.248  0.00  0.00     0.228 C 
ATOM      2  O1  <0> d          -1.711   2.254   1.150  0.00  0.00    -0.273 OA
ATOM      3  N1  <0> d          -0.242   1.246   2.466  0.00  0.00    -0.286 N 
ATOM      4  C4  <0> d          -0.772   1.618   3.679  0.00  0.00     0.006 A 
ATOM      5  C5  <0> d           0.011   1.075   4.628  0.00  0.00     0.019 A 
ATOM      6  N2  <0> d           0.999   0.396   4.023  0.00  0.00    -0.254 NA
ATOM      7  C6  <0> d           0.862   0.489   2.731  0.00  0.00     0.072 A 
ATOM      8  H6  <0> d          -1.649   2.228   3.840  0.00  0.00     0.114 H 
ATOM      9  H7  <0> d          -0.129   1.172   5.695  0.00  0.00     0.117 H 
ATOM     10  H8  <0> d           1.512   0.041   1.993  0.00  0.00     0.144 H 
ENDROOT
BRANCH   1  11
ATOM     11  C2  <0> d          -0.013   1.086   0.008  0.00  0.00     0.007 C 
ATOM     12  H4  <0> d           0.002  -0.004   0.002  0.00  0.00     0.046 H 
ATOM     13  H5  <0> d           1.010   1.463   0.000  0.00  0.00     0.046 H 
BRANCH  11  14
ATOM     14  C1  <0> d          -0.753   1.593  -1.232  0.00  0.00    -0.068 C 
ATOM     15  H1  <0> d          -1.775   1.215  -1.224  0.00  0.00     0.028 H 
ATOM     16  H2  <0> d          -0.767   2.683  -1.226  0.00  0.00     0.028 H 
ATOM     17  H3  <0> d          -0.242   1.241  -2.128  0.00  0.00     0.028 H 
ENDBRANCH  11  14
ENDBRANCH   1  11
TORSDOF 2
