REMARK  0 active torsions:
REMARK  status: ('A' for Active; 'I' for Inactive)
ROOT
ATOM      1  C1  <0> d           2.539   3.631  -0.002  0.00  0.00     0.076 A 
ATOM      2  C2  <0> d           3.340   2.344  -0.017  0.00  0.00     0.263 A 
ATOM      3  O1  <0> d           4.552   2.238  -0.028  0.00  0.00    -0.269 OA
ATOM      4  N1  <0> d           2.458   1.361  -0.014  0.00  0.00    -0.195 NA
ATOM      5  C3  <0> d           1.194   1.800   0.000  0.00  0.00     0.133 A 
ATOM      6  N2  <0> d           1.144   3.162   0.008  0.00  0.00    -0.333 N 
ATOM      7  C4  <0> d          -0.035   3.824   0.023  0.00  0.00    -0.018 A 
ATOM      8  C5  <0> d          -1.209   3.145   0.031  0.00  0.00    -0.068 A 
ATOM      9  C6  <0> d          -1.202   1.746   0.017  0.00  0.00    -0.078 A 
ATOM     10  C7  <0> d          -0.013   1.076   0.008  0.00  0.00    -0.038 A 
ATOM     11  H1  <0> d           2.757   4.209   0.896  0.00  0.00     0.079 H 
ATOM     12  H2  <0> d           2.743   4.220  -0.896  0.00  0.00     0.079 H 
ATOM     13  H3  <0> d          -0.042   4.904   0.029  0.00  0.00     0.111 H 
ATOM     14  H4  <0> d          -2.146   3.682   0.043  0.00  0.00     0.085 H 
ATOM     15  H5  <0> d          -2.133   1.198   0.018  0.00  0.00     0.083 H 
ATOM     16  H6  <0> d           0.002  -0.004   0.002  0.00  0.00     0.089 H 
ENDROOT
TORSDOF 0
