REMARK  6 active torsions:
REMARK  status: ('A' for Active; 'I' for Inactive)
REMARK    1  A    between atoms: C1_1  and  C2_2 
REMARK    2  A    between atoms: C2_2  and  O1_3 
REMARK    3  A    between atoms: O1_3  and  C3_4 
REMARK    4  A    between atoms: C3_4  and  O2_7 
REMARK    5  A    between atoms: O2_7  and  C5_8 
REMARK    6  A    between atoms: C5_8  and  C6_9 
ROOT
ATOM      1  C3  <0> d           0.161   1.489   0.221  0.00  0.00     0.216 C 
ATOM      2  C4  <0> d           0.550   0.079   0.388  0.00  0.00     0.120 C 
ATOM      3  N1  <0> d           0.851  -1.009   0.516  0.00  0.00    -0.192 NA
ATOM      4  H6  <0> d           1.038   2.125   0.344  0.00  0.00     0.154 H 
ENDROOT
BRANCH   1   5
ATOM      5  O1  <0> d          -0.387   1.680  -1.085  0.00  0.00    -0.349 OA
BRANCH   5   6
ATOM      6  C2  <0> d          -0.178   2.990  -1.617  0.00  0.00     0.020 C 
ATOM      7  H4  <0> d          -0.553   3.733  -0.912  0.00  0.00     0.073 H 
ATOM      8  H5  <0> d           0.888   3.150  -1.780  0.00  0.00     0.073 H 
BRANCH   6   9
ATOM      9  C1  <0> d          -0.924   3.126  -2.945  0.00  0.00    -0.056 C 
ATOM     10  H1  <0> d          -0.550   2.384  -3.650  0.00  0.00     0.030 H 
ATOM     11  H2  <0> d          -1.990   2.967  -2.781  0.00  0.00     0.030 H 
ATOM     12  H3  <0> d          -0.765   4.125  -3.351  0.00  0.00     0.030 H 
ENDBRANCH   6   9
ENDBRANCH   5   6
ENDBRANCH   1   5
BRANCH   1  13
ATOM     13  O2  <0> d          -0.818   1.832   1.204  0.00  0.00    -0.349 OA
BRANCH  13  14
ATOM     14  C5  <0> d          -1.038   3.238   1.338  0.00  0.00     0.020 C 
ATOM     15  H7  <0> d          -0.087   3.740   1.510  0.00  0.00     0.073 H 
ATOM     16  H8  <0> d          -1.493   3.623   0.425  0.00  0.00     0.073 H 
BRANCH  14  17
ATOM     17  C6  <0> d          -1.973   3.496   2.521  0.00  0.00    -0.056 C 
ATOM     18  H9  <0> d          -2.925   2.994   2.349  0.00  0.00     0.030 H 
ATOM     19  H10 <0> d          -1.519   3.111   3.434  0.00  0.00     0.030 H 
ATOM     20  H11 <0> d          -2.141   4.568   2.624  0.00  0.00     0.030 H 
ENDBRANCH  14  17
ENDBRANCH  13  14
ENDBRANCH   1  13
TORSDOF 6
