REMARK  5 active torsions:
REMARK  status: ('A' for Active; 'I' for Inactive)
REMARK    1  A    between atoms: C1_1  and  C2_2 
REMARK    2  A    between atoms: C4_4  and  C9_11 
REMARK    3  A    between atoms: C5_5  and  N2_10 
REMARK    4  A    between atoms: C6_6  and  C8_9 
REMARK    5  A    between atoms: C7_7  and  N1_8 
ROOT
ATOM      1  C2  <0> d          -2.737   2.233   2.375  0.00  0.00    -0.035 A 
ATOM      2  C3  <0> d          -2.017   2.466   3.530  0.00  0.00    -0.067 A 
ATOM      3  C4  <0> d          -0.651   2.255   3.552  0.00  0.00    -0.035 A 
ATOM      4  C5  <0> d           0.002   1.807   2.411  0.00  0.00     0.040 A 
ATOM      5  C6  <0> d          -0.718   1.572   1.248  0.00  0.00    -0.009 A 
ATOM      6  C7  <0> d          -2.088   1.791   1.228  0.00  0.00     0.040 A 
ATOM      7  H4  <0> d          -2.522   2.815   4.419  0.00  0.00     0.085 H 
ENDROOT
BRANCH   1   8
ATOM      8  C1  <0> d          -4.226   2.464   2.356  0.00  0.00    -0.049 C 
ATOM      9  H1  <0> d          -4.430   3.493   2.058  0.00  0.00     0.033 H 
ATOM     10  H2  <0> d          -4.691   1.781   1.645  0.00  0.00     0.033 H 
ATOM     11  H3  <0> d          -4.634   2.286   3.351  0.00  0.00     0.033 H 
ENDBRANCH   1   8
BRANCH   6  12
ATOM     12  N1  <0> d          -2.816   1.561   0.058  0.00  0.00    -0.398 N 
ATOM     13  H5  <0> d          -2.363   1.248  -0.741  0.00  0.00     0.156 HD
ATOM     14  H6  <0> d          -3.774   1.714   0.044  0.00  0.00     0.156 HD
ENDBRANCH   6  12
BRANCH   5  15
ATOM     15  C8  <0> d          -0.013   1.086   0.008  0.00  0.00    -0.047 C 
ATOM     16  H7  <0> d           0.002  -0.004   0.002  0.00  0.00     0.033 H 
ATOM     17  H8  <0> d           1.010   1.463   0.000  0.00  0.00     0.033 H 
ATOM     18  H9  <0> d          -0.540   1.447  -0.875  0.00  0.00     0.033 H 
ENDBRANCH   5  15
BRANCH   3  19
ATOM     19  C9  <0> d           0.130   2.511   4.815  0.00  0.00    -0.049 C 
ATOM     20  H12 <0> d           0.473   3.546   4.827  0.00  0.00     0.033 H 
ATOM     21  H13 <0> d          -0.508   2.331   5.680  0.00  0.00     0.033 H 
ATOM     22  H14 <0> d           0.990   1.843   4.852  0.00  0.00     0.033 H 
ENDBRANCH   3  19
BRANCH   4  23
ATOM     23  N2  <0> d           1.382   1.594   2.433  0.00  0.00    -0.398 N 
ATOM     24  H10 <0> d           1.838   1.282   1.636  0.00  0.00     0.156 HD
ATOM     25  H11 <0> d           1.885   1.759   3.246  0.00  0.00     0.156 HD
ENDBRANCH   4  23
TORSDOF 5
