REMARK  3 active torsions:
REMARK  status: ('A' for Active; 'I' for Inactive)
REMARK    1  A    between atoms: C1_1  and  C2_2 
REMARK    2  A    between atoms: C5_5  and  O1_8 
REMARK    3  A    between atoms: O1_8  and  C7_9 
ROOT
ATOM      1  C2  <0> d           0.002  -0.004   0.002  0.00  0.00    -0.043 A 
ATOM      2  C3  <0> d           0.006  -0.695  -1.197  0.00  0.00    -0.051 A 
ATOM      3  C4  <0> d           0.026  -2.094  -1.158  0.00  0.00     0.098 A 
ATOM      4  C5  <0> d           0.041  -2.735   0.091  0.00  0.00     0.184 A 
ATOM      5  N1  <0> d           0.036  -2.027   1.206  0.00  0.00    -0.235 NA
ATOM      6  C6  <0> d           0.023  -0.707   1.192  0.00  0.00     0.011 A 
ATOM      7  C8  <0> d           0.030  -2.857  -2.369  0.00  0.00     0.104 C 
ATOM      8  N2  <0> d           0.033  -3.463  -3.331  0.00  0.00    -0.191 NA
ATOM      9  H4  <0> d          -0.006  -0.168  -2.140  0.00  0.00     0.086 H 
ATOM     10  H5  <0> d           0.024  -0.167   2.127  0.00  0.00     0.115 H 
ENDROOT
BRANCH   4  11
ATOM     11  O1  <0> d           0.060  -4.088   0.152  0.00  0.00    -0.338 OA
BRANCH  11  12
ATOM     12  C7  <0> d           0.074  -4.678   1.454  0.00  0.00     0.012 C 
ATOM     13  H6  <0> d           0.089  -5.764   1.360  0.00  0.00     0.067 H 
ATOM     14  H7  <0> d           0.962  -4.348   1.993  0.00  0.00     0.067 H 
ATOM     15  H8  <0> d          -0.818  -4.373   2.001  0.00  0.00     0.067 H 
ENDBRANCH  11  12
ENDBRANCH   4  11
BRANCH   1  16
ATOM     16  C1  <0> d          -0.018   1.503   0.010  0.00  0.00    -0.050 C 
ATOM     17  H1  <0> d           1.004   1.880   0.003  0.00  0.00     0.033 H 
ATOM     18  H2  <0> d          -0.545   1.864  -0.873  0.00  0.00     0.033 H 
ATOM     19  H3  <0> d          -0.529   1.854   0.907  0.00  0.00     0.033 H 
ENDBRANCH   1  16
TORSDOF 3
