REMARK  0 active torsions:
REMARK  status: ('A' for Active; 'I' for Inactive)
ROOT
ATOM      1  C1  <0> d           2.381   1.429  -0.013  0.00  0.00    -0.025 A 
ATOM      2  C2  <0> d           2.406   0.033  -0.021  0.00  0.00     0.050 A 
ATOM      3  C3  <0> d           1.206  -0.681  -0.014  0.00  0.00    -0.025 A 
ATOM      4  C4  <0> d           0.002  -0.004   0.002  0.00  0.00     0.120 A 
ATOM      5  C5  <0> d          -0.017   1.381   0.010  0.00  0.00    -0.008 A 
ATOM      6  C6  <0> d           1.170   2.095   0.002  0.00  0.00     0.120 A 
ATOM      7  F1  <0> d           1.144   3.446   0.010  0.00  0.00    -0.206 F 
ATOM      8  F2  <0> d          -1.159  -0.694   0.009  0.00  0.00    -0.206 F 
ATOM      9  C7  <0> d           3.657  -0.663  -0.038  0.00  0.00     0.099 C 
ATOM     10  N1  <0> d           4.650  -1.216  -0.051  0.00  0.00    -0.191 NA
ATOM     11  H1  <0> d           3.305   1.987  -0.019  0.00  0.00     0.090 H 
ATOM     12  H2  <0> d           1.220  -1.761  -0.020  0.00  0.00     0.090 H 
ATOM     13  H3  <0> d          -0.960   1.906   0.017  0.00  0.00     0.092 H 
ENDROOT
TORSDOF 0
