REMARK  7 active torsions:
REMARK  status: ('A' for Active; 'I' for Inactive)
REMARK    1  A    between atoms: C1_1  and  C2_2 
REMARK    2  A    between atoms: C2_2  and  C3_3 
REMARK    3  A    between atoms: C2_2  and  C4_4 
REMARK    4  A    between atoms: C4_4  and  C5_6 
REMARK    5  A    between atoms: C5_6  and  C6_7 
REMARK    6  A    between atoms: C6_7  and  O2_8 
REMARK    7  A    between atoms: O2_8  and  C7_9 
ROOT
ATOM      1  C4  <0> d           0.707  -0.490  -1.238  0.00  0.00     0.132 C 
ATOM      2  O1  <0> d           0.080  -0.694  -2.249  0.00  0.00    -0.298 OA
ENDROOT
BRANCH   1   3
ATOM      3  C2  <0> d           0.002  -0.004   0.002  0.00  0.00    -0.003 C 
ATOM      4  H4  <0> d           0.529  -0.365   0.885  0.00  0.00     0.050 H 
BRANCH   3   5
ATOM      5  C1  <0> d          -0.019   1.526   0.010  0.00  0.00    -0.067 C 
ATOM      6  H1  <0> d           1.004   1.903   0.003  0.00  0.00     0.028 H 
ATOM      7  H2  <0> d          -0.546   1.887  -0.873  0.00  0.00     0.028 H 
ATOM      8  H3  <0> d          -0.529   1.877   0.907  0.00  0.00     0.028 H 
ENDBRANCH   3   5
BRANCH   3   9
ATOM      9  C3  <0> d          -1.433  -0.534   0.013  0.00  0.00    -0.067 C 
ATOM     10  H5  <0> d          -1.960  -0.173  -0.870  0.00  0.00     0.028 H 
ATOM     11  H6  <0> d          -1.419  -1.623   0.007  0.00  0.00     0.028 H 
ATOM     12  H7  <0> d          -1.944  -0.182   0.910  0.00  0.00     0.028 H 
ENDBRANCH   3   9
ENDBRANCH   1   3
BRANCH   1  13
ATOM     13  C5  <0> d           2.196  -0.721  -1.216  0.00  0.00     0.010 C 
ATOM     14  H8  <0> d           2.705   0.211  -0.972  0.00  0.00     0.047 H 
ATOM     15  H9  <0> d           2.436  -1.474  -0.465  0.00  0.00     0.047 H 
BRANCH  13  16
ATOM     16  C6  <0> d           2.657  -1.209  -2.591  0.00  0.00     0.025 C 
ATOM     17  H10 <0> d           2.148  -2.141  -2.835  0.00  0.00     0.074 H 
ATOM     18  H11 <0> d           2.417  -0.457  -3.342  0.00  0.00     0.074 H 
BRANCH  16  19
ATOM     19  O2  <0> d           4.069  -1.428  -2.570  0.00  0.00    -0.396 OA
BRANCH  19  20
ATOM     20  C7  <0> d           4.604  -1.888  -3.813  0.00  0.00     0.004 C 
ATOM     21  H12 <0> d           4.136  -2.834  -4.082  0.00  0.00     0.066 H 
ATOM     22  H13 <0> d           4.405  -1.149  -4.590  0.00  0.00     0.066 H 
ATOM     23  H14 <0> d           5.680  -2.030  -3.715  0.00  0.00     0.066 H 
ENDBRANCH  19  20
ENDBRANCH  16  19
ENDBRANCH  13  16
ENDBRANCH   1  13
TORSDOF 7
