REMARK  1 active torsions:
REMARK  status: ('A' for Active; 'I' for Inactive)
REMARK    1  A    between atoms: C2_4  and  N5_7 
ROOT
ATOM      1  C1  <0> d          -0.016   1.318   0.009  0.00  0.00     0.130 A 
ATOM      2  N1  <0> d           1.118   1.998   0.002  0.00  0.00    -0.125 NA
ATOM      3  N2  <0> d           2.247   1.374  -0.012  0.00  0.00     0.046 NA
ATOM      4  C2  <0> d           2.269   0.045  -0.019  0.00  0.00     0.757 A 
ATOM      5  N3  <0> d           1.127  -0.636  -0.012  0.00  0.00     0.046 NA
ATOM      6  N4  <0> d           0.002  -0.004   0.002  0.00  0.00    -0.125 NA
ATOM      7  H1  <0> d          -0.959   1.843   0.017  0.00  0.00     0.152 H 
ENDROOT
BRANCH   4   8
ATOM      8  N5  <0> d           3.478  -0.629  -0.035  0.00  0.00    -0.228 N 
ATOM      9  H2  <0> d           3.495  -1.729  -0.041  0.00  0.00     0.174 HD
ATOM     10  H3  <0> d           4.422  -0.065  -0.041  0.00  0.00     0.174 HD
ENDBRANCH   4   8
TORSDOF 1
