REMARK  5 active torsions:
REMARK  status: ('A' for Active; 'I' for Inactive)
REMARK    1  A    between atoms: C1_1  and  C2_2 
REMARK    2  A    between atoms: C2_2  and  C3_4 
REMARK    3  A    between atoms: C2_2  and  C9_10 
REMARK    4  A    between atoms: C9_10  and  C10_12 
REMARK    5  A    between atoms: C9_10  and  O1_13 
ROOT
ATOM      1  C3  <0> d          -0.779   2.951   1.272  0.00  0.00    -0.049 C 
ATOM      2  C4  <0> d          -0.604   1.432   1.256  0.00  0.00    -0.061 C 
ATOM      3  C5  <0> d           0.201   1.024   0.020  0.00  0.00    -0.065 C 
ATOM      4  C6  <0> d          -0.543   1.466  -1.242  0.00  0.00    -0.065 C 
ATOM      5  C7  <0> d          -0.718   2.986  -1.225  0.00  0.00    -0.065 C 
ATOM      6  C8  <0> d          -1.523   3.393   0.011  0.00  0.00    -0.061 C 
ATOM      7  H6  <0> d           0.209   3.434   1.303  0.00  0.00     0.040 H 
ATOM      8  H7  <0> d          -0.069   1.114   2.163  0.00  0.00     0.033 H 
ATOM      9  H8  <0> d          -1.592   0.949   1.225  0.00  0.00     0.033 H 
ATOM     10  H9  <0> d           1.189   1.507   0.051  0.00  0.00     0.033 H 
ATOM     11  H10 <0> d           0.327  -0.068   0.009  0.00  0.00     0.033 H 
ATOM     12  H11 <0> d           0.036   1.173  -2.130  0.00  0.00     0.033 H 
ATOM     13  H12 <0> d          -1.531   0.983  -1.272  0.00  0.00     0.033 H 
ATOM     14  H13 <0> d           0.270   3.468  -1.194  0.00  0.00     0.033 H 
ATOM     15  H14 <0> d          -1.253   3.303  -2.132  0.00  0.00     0.033 H 
ATOM     16  H15 <0> d          -2.511   2.910  -0.020  0.00  0.00     0.033 H 
ATOM     17  H16 <0> d          -1.649   4.486   0.022  0.00  0.00     0.033 H 
ENDROOT
BRANCH   1  18
ATOM     18  C2  <0> d          -1.585   3.359   2.508  0.00  0.00    -0.030 C 
ATOM     19  H1  <0> d          -2.548   2.828   2.509  0.00  0.00     0.043 H 
BRANCH  18  20
ATOM     20  C1  <0> d          -1.833   4.868   2.480  0.00  0.00    -0.070 C 
ATOM     21  H3  <0> d          -2.412   5.161   3.368  0.00  0.00     0.028 H 
ATOM     22  H4  <0> d          -2.397   5.130   1.572  0.00  0.00     0.028 H 
ATOM     23  H5  <0> d          -0.870   5.399   2.479  0.00  0.00     0.028 H 
ENDBRANCH  18  20
BRANCH  18  24
ATOM     24  C9  <0> d          -0.801   2.995   3.771  0.00  0.00     0.035 C 
ATOM     25  H2  <0> d          -0.473   1.945   3.748  0.00  0.00     0.082 H 
BRANCH  24  26
ATOM     26  C10 <0> d          -1.659   3.282   5.004  0.00  0.00    -0.052 C 
ATOM     27  H17 <0> d          -1.095   3.020   5.912  0.00  0.00     0.030 H 
ATOM     28  H18 <0> d          -2.579   2.682   4.958  0.00  0.00     0.030 H 
ATOM     29  H19 <0> d          -1.918   4.351   5.029  0.00  0.00     0.030 H 
ENDBRANCH  24  26
BRANCH  24  30
ATOM     30  O1  <0> d           0.395   3.774   3.830  0.00  0.00    -0.396 OA
ATOM     31  H20 <0> d           1.092   3.650   4.673  0.00  0.00     0.210 HD
ENDBRANCH  24  30
ENDBRANCH  18  24
ENDBRANCH   1  18
TORSDOF 5
