REMARK  2 active torsions:
REMARK  status: ('A' for Active; 'I' for Inactive)
REMARK    1  A    between atoms: C1_1  and  C2_2 
REMARK    2  A    between atoms: C5_5  and  N1_8 
ROOT
ATOM      1  C2  <0> d           1.156   3.166   0.009  0.00  0.00    -0.062 A 
ATOM      2  C3  <0> d           1.174   1.783   0.000  0.00  0.00    -0.075 A 
ATOM      3  C4  <0> d          -0.013   1.076   0.008  0.00  0.00    -0.056 A 
ATOM      4  C5  <0> d          -1.224   1.754   0.017  0.00  0.00     0.041 A 
ATOM      5  C6  <0> d          -1.238   3.142   0.031  0.00  0.00    -0.056 A 
ATOM      6  C7  <0> d          -0.049   3.844   0.024  0.00  0.00    -0.075 A 
ATOM      7  H4  <0> d           2.116   1.256  -0.011  0.00  0.00     0.084 H 
ATOM      8  H5  <0> d           0.002  -0.004   0.002  0.00  0.00     0.087 H 
ATOM      9  H6  <0> d          -2.179   3.672   0.043  0.00  0.00     0.087 H 
ATOM     10  H7  <0> d          -0.060   4.924   0.030  0.00  0.00     0.084 H 
ENDROOT
BRANCH   4  11
ATOM     11  N1  <0> d          -2.430   1.038   0.019  0.00  0.00    -0.297 N 
ATOM     12  C9  <0> d          -3.692   1.554   0.028  0.00  0.00     0.093 A 
ATOM     13  N3  <0> d          -4.521   0.545   0.026  0.00  0.00    -0.144 NA
ATOM     14  H9  <0> d          -3.956   2.601   0.034  0.00  0.00     0.147 H 
ATOM     15  N2  <0> d          -3.865  -0.560   0.017  0.00  0.00    -0.144 NA
ATOM     16  C8  <0> d          -2.582  -0.316   0.007  0.00  0.00     0.093 A 
ATOM     17  H8  <0> d          -1.790  -1.050  -0.007  0.00  0.00     0.147 H 
ENDBRANCH   4  11
BRANCH   1  18
ATOM     18  C1  <0> d           2.452   3.935   0.000  0.00  0.00    -0.051 C 
ATOM     19  H1  <0> d           2.754   4.126  -1.029  0.00  0.00     0.033 H 
ATOM     20  H2  <0> d           2.315   4.883   0.521  0.00  0.00     0.033 H 
ATOM     21  H3  <0> d           3.223   3.352   0.503  0.00  0.00     0.033 H 
ENDBRANCH   1  18
TORSDOF 2
