REMARK  2 active torsions:
REMARK  status: ('A' for Active; 'I' for Inactive)
REMARK    1  A    between atoms: C5_7  and  C6_8 
REMARK    2  A    between atoms: C6_8  and  O2_9 
ROOT
ATOM      1  C1  <0> d           3.490  -1.309  -0.467  0.00  0.00    -0.056 C 
ATOM      2  C2  <0> d           3.515   0.174  -0.031  0.00  0.00    -0.036 C 
ATOM      3  C3  <0> d           2.070   0.599  -0.015  0.00  0.00     0.003 A 
ATOM      4  C4  <0> d           1.256  -0.479  -0.012  0.00  0.00     0.087 A 
ATOM      5  O1  <0> d           0.002  -0.004   0.002  0.00  0.00    -0.217 OA
ATOM      6  N1  <0> d          -0.014   1.206   0.009  0.00  0.00    -0.130 NA
ATOM      7  C5  <0> d           1.191   1.701  -0.000  0.00  0.00     0.094 A 
ATOM      8  C7  <0> d           2.076  -1.748  -0.026  0.00  0.00    -0.017 C 
ATOM      9  H1  <0> d           4.243  -1.923   0.050  0.00  0.00     0.034 H 
ATOM     10  H2  <0> d           3.593  -1.441  -1.554  0.00  0.00     0.034 H 
ATOM     11  H3  <0> d           3.974   0.256   0.965  0.00  0.00     0.040 H 
ATOM     12  H4  <0> d           4.103   0.759  -0.754  0.00  0.00     0.040 H 
ATOM     13  H8  <0> d           1.679  -2.480  -0.745  0.00  0.00     0.043 H 
ATOM     14  H9  <0> d           2.129  -2.207   0.973  0.00  0.00     0.043 H 
ENDROOT
BRANCH   7  15
ATOM     15  C6  <0> d           1.569   3.160   0.004  0.00  0.00     0.059 C 
ATOM     16  H5  <0> d           2.526   3.292  -0.524  0.00  0.00     0.083 H 
ATOM     17  H6  <0> d           0.787   3.743  -0.504  0.00  0.00     0.083 H 
BRANCH  15  18
ATOM     18  O2  <0> d           1.702   3.614   1.352  0.00  0.00    -0.395 OA
ATOM     19  H7  <0> d           1.976   4.660   1.556  0.00  0.00     0.209 HD
ENDBRANCH  15  18
ENDBRANCH   7  15
TORSDOF 2
