REMARK  1 active torsions:
REMARK  status: ('A' for Active; 'I' for Inactive)
REMARK    1  A    between atoms: C3_3  and  N2_8 
ROOT
ATOM      1  C1  <0> d          -0.016   1.351   0.009  0.00  0.00     0.005 A 
ATOM      2  C2  <0> d           1.204   2.059   0.002  0.00  0.00     0.202 A 
ATOM      3  C3  <0> d           2.418   1.323  -0.014  0.00  0.00     0.092 A 
ATOM      4  C4  <0> d           2.370  -0.031  -0.021  0.00  0.00     0.007 A 
ATOM      5  N1  <0> d           1.176  -0.682  -0.013  0.00  0.00    -0.354 N 
ATOM      6  C5  <0> d           0.002  -0.004   0.002  0.00  0.00     0.107 A 
ATOM      7 Cl1  <0> d          -1.495  -0.882   0.012  0.00  0.00    -0.064 Cl
ATOM      8  O1  <0> d           1.215   3.282   0.008  0.00  0.00    -0.286 OA
ATOM      9  H1  <0> d          -0.956   1.883   0.026  0.00  0.00     0.094 H 
ATOM     10  H2  <0> d           3.289  -0.599  -0.033  0.00  0.00     0.115 H 
ATOM     11  H5  <0> d           1.163  -1.651  -0.018  0.00  0.00     0.166 HD
ENDROOT
BRANCH   3  12
ATOM     12  N2  <0> d           3.652   1.990  -0.023  0.00  0.00    -0.395 N 
ATOM     13  H3  <0> d           3.680   2.960  -0.018  0.00  0.00     0.156 HD
ATOM     14  H4  <0> d           4.479   1.482  -0.033  0.00  0.00     0.156 HD
ENDBRANCH   3  12
TORSDOF 1
