REMARK  3 active torsions:
REMARK  status: ('A' for Active; 'I' for Inactive)
REMARK    1  A    between atoms: C1_1  and  C2_2 
REMARK    2  A    between atoms: C6_6  and  O1_8 
REMARK    3  A    between atoms: O1_8  and  C7_9 
ROOT
ATOM      1  C2  <0> d          -0.018   1.503   0.010  0.00  0.00     0.033 A 
ATOM      2  C3  <0> d           1.173   2.200   0.003  0.00  0.00    -0.056 A 
ATOM      3  C4  <0> d           1.148   3.588   0.010  0.00  0.00    -0.039 A 
ATOM      4  C5  <0> d          -0.082   4.226   0.025  0.00  0.00     0.169 A 
ATOM      5  C6  <0> d          -1.242   3.459   0.032  0.00  0.00     0.203 A 
ATOM      6  N1  <0> d          -1.175   2.138   0.019  0.00  0.00    -0.227 NA
ATOM      7  F1  <0> d          -0.153   5.575   0.032  0.00  0.00    -0.202 F 
ATOM      8  H4  <0> d           2.115   1.671  -0.008  0.00  0.00     0.086 H 
ATOM      9  H5  <0> d           2.066   4.157   0.004  0.00  0.00     0.088 H 
ENDROOT
BRANCH   5  10
ATOM     10  O1  <0> d          -2.453   4.071   0.046  0.00  0.00    -0.337 OA
BRANCH  10  11
ATOM     11  C7  <0> d          -3.606   3.227   0.053  0.00  0.00     0.012 C 
ATOM     12  H6  <0> d          -3.604   2.602  -0.840  0.00  0.00     0.067 H 
ATOM     13  H7  <0> d          -3.587   2.593   0.939  0.00  0.00     0.067 H 
ATOM     14  H8  <0> d          -4.506   3.842   0.065  0.00  0.00     0.067 H 
ENDBRANCH  10  11
ENDBRANCH   5  10
BRANCH   1  15
ATOM     15  C1  <0> d           0.002  -0.004   0.002  0.00  0.00    -0.035 C 
ATOM     16  H1  <0> d           0.017  -0.373   1.028  0.00  0.00     0.035 H 
ATOM     17  H2  <0> d          -0.888  -0.377  -0.505  0.00  0.00     0.035 H 
ATOM     18  H3  <0> d           0.892  -0.352  -0.522  0.00  0.00     0.035 H 
ENDBRANCH   1  15
TORSDOF 3
