REMARK  3 active torsions:
REMARK  status: ('A' for Active; 'I' for Inactive)
REMARK    1  A    between atoms: C1_1  and  C2_2 
REMARK    2  A    between atoms: C7_8  and  O1_10 
REMARK    3  A    between atoms: O1_10  and  C8_11 
ROOT
ATOM      1  C8  <0> d           0.199  -0.927   3.539  0.00  0.00     0.098 C 
ATOM      2  C9  <0> d          -0.524  -0.359   4.689  0.00  0.00     0.085 C 
ATOM      3  N1  <0> d          -1.081   0.080   5.576  0.00  0.00    -0.195 NA
ATOM      4  H14 <0> d          -0.228  -1.909   3.286  0.00  0.00     0.097 H 
ATOM      5  H15 <0> d           1.262  -1.044   3.795  0.00  0.00     0.097 H 
ENDROOT
BRANCH   1   6
ATOM      6  O1  <0> d           0.073  -0.050   2.417  0.00  0.00    -0.372 OA
BRANCH   6   7
ATOM      7  C7  <0> d           0.742  -0.511   1.242  0.00  0.00     0.043 C 
ATOM      8  C2  <0> d           0.002  -0.004   0.002  0.00  0.00    -0.032 C 
ATOM      9  H1  <0> d           0.517  -0.359  -0.903  0.00  0.00     0.043 H 
ATOM     10  C3  <0> d          -0.019   1.526   0.010  0.00  0.00    -0.060 C 
ATOM     11  C4  <0> d           1.417   2.055  -0.000  0.00  0.00    -0.065 C 
ATOM     12  H6  <0> d          -0.551   1.890  -0.881  0.00  0.00     0.033 H 
ATOM     13  H7  <0> d          -0.534   1.881   0.915  0.00  0.00     0.033 H 
ATOM     14  C5  <0> d           2.157   1.548   1.239  0.00  0.00    -0.063 C 
ATOM     15  H8  <0> d           1.932   1.700  -0.905  0.00  0.00     0.033 H 
ATOM     16  H9  <0> d           1.402   3.155   0.006  0.00  0.00     0.033 H 
ATOM     17  C6  <0> d           2.178   0.019   1.231  0.00  0.00    -0.040 C 
ATOM     18  H10 <0> d           3.189   1.929   1.231  0.00  0.00     0.033 H 
ATOM     19  H11 <0> d           1.642   1.903   2.144  0.00  0.00     0.033 H 
ATOM     20  H12 <0> d           2.692  -0.336   0.326  0.00  0.00     0.036 H 
ATOM     21  H13 <0> d           2.709  -0.346   2.122  0.00  0.00     0.036 H 
ATOM     22  H2  <0> d           0.723  -1.609   1.296  0.00  0.00     0.083 H 
BRANCH   8  23
ATOM     23  C1  <0> d          -1.433  -0.534   0.013  0.00  0.00    -0.071 C 
ATOM     24  H3  <0> d          -1.965  -0.169  -0.878  0.00  0.00     0.028 H 
ATOM     25  H4  <0> d          -1.948  -0.179   0.918  0.00  0.00     0.028 H 
ATOM     26  H5  <0> d          -1.418  -1.633   0.007  0.00  0.00     0.028 H 
ENDBRANCH   8  23
ENDBRANCH   6   7
ENDBRANCH   1   6
TORSDOF 3
