REMARK  1 active torsions:
REMARK  status: ('A' for Active; 'I' for Inactive)
REMARK    1  A    between atoms: C2_2  and  N3_9 
ROOT
ATOM      1  C1  <0> d          -0.013   1.076   0.008  0.00  0.00    -0.002 A 
ATOM      2  C2  <0> d           1.171   1.797   0.001  0.00  0.00     0.105 A 
ATOM      3  N1  <0> d           1.110   3.162   0.008  0.00  0.00    -0.293 N 
ATOM      4  C3  <0> d          -0.084   3.782   0.022  0.00  0.00     0.349 A 
ATOM      5  O1  <0> d          -0.125   5.001   0.028  0.00  0.00    -0.245 OA
ATOM      6  N2  <0> d          -1.221   3.090   0.029  0.00  0.00    -0.182 NA
ATOM      7  C4  <0> d          -1.219   1.767   0.017  0.00  0.00     0.135 A 
ATOM      8 Cl1  <0> d          -2.720   0.895   0.020  0.00  0.00    -0.062 Cl
ATOM      9  H1  <0> d           0.002  -0.004   0.002  0.00  0.00     0.094 H 
ATOM     10  H4  <0> d           1.928   3.683   0.003  0.00  0.00     0.172 HD
ENDROOT
BRANCH   2  11
ATOM     11  N3  <0> d           2.381   1.152  -0.014  0.00  0.00    -0.385 N 
ATOM     12  H3  <0> d           2.414   0.183  -0.018  0.00  0.00     0.157 HD
ATOM     13  H2  <0> d           3.204   1.665  -0.019  0.00  0.00     0.157 HD
ENDBRANCH   2  11
TORSDOF 1
