REMARK  1 active torsions:
REMARK  status: ('A' for Active; 'I' for Inactive)
REMARK    1  A    between atoms: C1_1  and  C2_2 
ROOT
ATOM      1  C2  <0> d           1.184  -0.683  -0.013  0.00  0.00     0.059 A 
ATOM      2  C3  <0> d           2.345   0.014  -0.021  0.00  0.00     0.126 A 
ATOM      3  C4  <0> d           2.286   1.430  -0.012  0.00  0.00     0.270 A 
ATOM      4  O1  <0> d           3.314   2.090  -0.018  0.00  0.00    -0.266 OA
ATOM      5  N1  <0> d           1.088   2.039   0.002  0.00  0.00    -0.317 N 
ATOM      6  C5  <0> d          -0.016   1.341   0.009  0.00  0.00     0.067 A 
ATOM      7  N2  <0> d           0.002  -0.004   0.002  0.00  0.00    -0.247 NA
ATOM      8  H1  <0> d           1.044   3.138   0.007  0.00  0.00     0.170 HD
ATOM      9 Cl1  <0> d           3.872  -0.810  -0.040  0.00  0.00    -0.076 Cl
ATOM     10  H5  <0> d          -0.889   1.829   0.019  0.00  0.00     0.143 H 
ENDROOT
BRANCH   1  11
ATOM     11  C1  <0> d           1.198  -2.190  -0.022  0.00  0.00    -0.034 C 
ATOM     12  H2  <0> d           0.165  -2.566  -0.014  0.00  0.00     0.035 H 
ATOM     13  H3  <0> d           1.729  -2.556   0.870  0.00  0.00     0.035 H 
ATOM     14  H4  <0> d           1.712  -2.546  -0.927  0.00  0.00     0.035 H 
ENDBRANCH   1  11
TORSDOF 1
