REMARK  3 active torsions:
REMARK  status: ('A' for Active; 'I' for Inactive)
REMARK    1  A    between atoms: C3_3  and  C4_4 
REMARK    2  A    between atoms: C4_4  and  N1_5 
REMARK       I    between atoms: N1_5  and  C5_6 
REMARK    3  A    between atoms: C5_6  and  C6_8 
ROOT
ATOM      1  C6  <0> d           1.317  -0.740  -0.015  0.00  0.00     0.088 C 
ATOM      2  C7  <0> d           1.068  -2.190  -0.020  0.00  0.00     0.068 C 
ATOM      3  N2  <0> d           0.875  -3.310  -0.024  0.00  0.00    -0.197 NA
ATOM      4  H9  <0> d           1.877  -0.464  -0.908  0.00  0.00     0.069 H 
ATOM      5  H10 <0> d           1.894  -0.473   0.872  0.00  0.00     0.069 H 
ENDROOT
BRANCH   1   6
ATOM      6  C5  <0> d           0.002  -0.004   0.002  0.00  0.00     0.230 C 
ATOM      7  N1  <0> d          -0.016   1.344   0.009  0.00  0.00    -0.360 N 
ATOM      8  H8  <0> d           0.817   1.840   0.004  0.00  0.00     0.162 HD
ATOM      9  O1  <0> d          -1.040  -0.625   0.009  0.00  0.00    -0.273 OA
BRANCH   7  10
ATOM     10  C4  <0> d          -1.295   2.059   0.019  0.00  0.00    -0.002 C 
ATOM     11  H6  <0> d          -1.867   1.792  -0.869  0.00  0.00     0.064 H 
ATOM     12  H7  <0> d          -1.859   1.783   0.911  0.00  0.00     0.064 H 
BRANCH  10  13
ATOM     13  C3  <0> d          -1.036   3.567   0.026  0.00  0.00    -0.039 A 
ATOM     14  C1  <0> d          -1.502   4.358   1.250  0.00  0.00    -0.060 A 
ATOM     15  C2  <0> d          -2.249   4.492  -0.079  0.00  0.00    -0.060 A 
ATOM     16  H1  <0> d          -1.993   3.804   2.050  0.00  0.00     0.033 H 
ATOM     17  H2  <0> d          -0.887   5.200   1.569  0.00  0.00     0.033 H 
ATOM     18  H3  <0> d          -2.126   5.423  -0.634  0.00  0.00     0.033 H 
ATOM     19  H4  <0> d          -3.232   4.027  -0.154  0.00  0.00     0.033 H 
ATOM     20  H5  <0> d          -0.114   3.888  -0.459  0.00  0.00     0.042 H 
ENDBRANCH  10  13
ENDBRANCH   7  10
ENDBRANCH   1   6
TORSDOF 3
