REMARK  0 active torsions:
REMARK  status: ('A' for Active; 'I' for Inactive)
ROOT
ATOM      1  C1  <0> d          -0.019   1.526   0.010  0.00  0.00    -0.065 C 
ATOM      2  C2  <0> d           1.417   2.055  -0.000  0.00  0.00    -0.060 C 
ATOM      3  C3  <0> d           2.157   1.548   1.239  0.00  0.00    -0.004 C 
ATOM      4  C4  <0> d           2.178   0.019   1.231  0.00  0.00     0.243 C 
ATOM      5  C5  <0> d           0.742  -0.511   1.242  0.00  0.00    -0.004 C 
ATOM      6  C6  <0> d           0.002  -0.004   0.002  0.00  0.00    -0.060 C 
ATOM      7  F1  <0> d           2.832  -0.432   0.080  0.00  0.00    -0.206 F 
ATOM      8  F2  <0> d           2.854  -0.445   2.364  0.00  0.00    -0.206 F 
ATOM      9  H1  <0> d          -0.529   1.877   0.907  0.00  0.00     0.033 H 
ATOM     10  H2  <0> d          -0.546   1.887  -0.873  0.00  0.00     0.033 H 
ATOM     11  H3  <0> d           1.927   1.704  -0.897  0.00  0.00     0.033 H 
ATOM     12  H4  <0> d           1.402   3.145   0.006  0.00  0.00     0.033 H 
ATOM     13  H5  <0> d           3.179   1.926   1.231  0.00  0.00     0.041 H 
ATOM     14  H6  <0> d           1.647   1.900   2.136  0.00  0.00     0.041 H 
ATOM     15  H7  <0> d           0.757  -1.601   1.236  0.00  0.00     0.041 H 
ATOM     16  H8  <0> d           0.232  -0.159   2.138  0.00  0.00     0.041 H 
ATOM     17  H9  <0> d          -1.020  -0.381   0.010  0.00  0.00     0.033 H 
ATOM     18  H10 <0> d           0.512  -0.356  -0.895  0.00  0.00     0.033 H 
ENDROOT
TORSDOF 0
