REMARK  3 active torsions:
REMARK  status: ('A' for Active; 'I' for Inactive)
REMARK    1  A    between atoms: C1_1  and  S1_2 
REMARK    2  A    between atoms: S1_2  and  C2_3 
REMARK    3  A    between atoms: C7_8  and  N1_9 
ROOT
ATOM      1  C2  <0> d           1.181   2.112   0.002  0.00  0.00     0.026 A 
ATOM      2  C3  <0> d           1.155   3.499   0.009  0.00  0.00    -0.065 A 
ATOM      3  C4  <0> d          -0.056   4.167   0.024  0.00  0.00    -0.082 A 
ATOM      4  C5  <0> d          -1.242   3.458   0.031  0.00  0.00    -0.081 A 
ATOM      5  C6  <0> d          -1.226   2.075   0.019  0.00  0.00    -0.056 A 
ATOM      6  C7  <0> d          -0.017   1.396   0.010  0.00  0.00     0.042 A 
ATOM      7  H4  <0> d           2.079   4.056   0.003  0.00  0.00     0.085 H 
ATOM      8  H5  <0> d          -0.074   5.247   0.030  0.00  0.00     0.083 H 
ATOM      9  H6  <0> d          -2.185   3.985   0.042  0.00  0.00     0.083 H 
ATOM     10  H7  <0> d          -2.155   1.524   0.021  0.00  0.00     0.086 H 
ENDROOT
BRANCH   1  11
ATOM     11  S1  <0> d           2.721   1.257  -0.017  0.00  0.00    -0.132 SA
BRANCH  11  12
ATOM     12  C1  <0> d           3.959   2.583  -0.022  0.00  0.00    -0.030 C 
ATOM     13  H1  <0> d           3.823   3.204  -0.907  0.00  0.00     0.042 H 
ATOM     14  H2  <0> d           3.840   3.195   0.873  0.00  0.00     0.042 H 
ATOM     15  H3  <0> d           4.958   2.148  -0.034  0.00  0.00     0.042 H 
ENDBRANCH  11  12
ENDBRANCH   1  11
BRANCH   6  16
ATOM     16  N1  <0> d           0.002  -0.004   0.002  0.00  0.00    -0.398 N 
ATOM     17  H8  <0> d           0.849  -0.478  -0.009  0.00  0.00     0.156 HD
ATOM     18  H9  <0> d          -0.831  -0.500   0.007  0.00  0.00     0.156 HD
ENDBRANCH   6  16
TORSDOF 3
