REMARK  2 active torsions:
REMARK  status: ('A' for Active; 'I' for Inactive)
REMARK    1  A    between atoms: C1_1  and  N1_2 
REMARK    2  A    between atoms: C4_5  and  C5_7 
ROOT
ATOM      1  N1  <0> d          -0.698   1.558   1.213  0.00  0.00    -0.285 N 
ATOM      2  C2  <0> d          -0.120   1.824   2.403  0.00  0.00    -0.000 A 
ATOM      3  C3  <0> d          -1.091   2.235   3.251  0.00  0.00    -0.041 A 
ATOM      4  C4  <0> d          -2.304   2.220   2.556  0.00  0.00     0.060 A 
ATOM      5  N2  <0> d          -2.070   1.819   1.333  0.00  0.00    -0.178 NA
ATOM      6  H4  <0> d           0.930   1.727   2.637  0.00  0.00     0.114 H 
ATOM      7  H5  <0> d          -0.953   2.524   4.283  0.00  0.00     0.088 H 
ENDROOT
BRANCH   4   8
ATOM      8  C5  <0> d          -3.649   2.604   3.117  0.00  0.00    -0.010 A 
ATOM      9  C7  <0> d          -4.433   1.529   3.872  0.00  0.00    -0.056 A 
ATOM     10  C6  <0> d          -3.783   2.683   4.639  0.00  0.00    -0.056 A 
ATOM     11  H9  <0> d          -5.519   1.536   3.776  0.00  0.00     0.034 H 
ATOM     12  H10 <0> d          -3.977   0.543   3.962  0.00  0.00     0.034 H 
ATOM     13  H7  <0> d          -2.899   2.457   5.235  0.00  0.00     0.034 H 
ATOM     14  H8  <0> d          -4.442   3.450   5.047  0.00  0.00     0.034 H 
ATOM     15  H6  <0> d          -4.219   3.319   2.524  0.00  0.00     0.049 H 
ENDBRANCH   4   8
BRANCH   1  16
ATOM     16  C1  <0> d          -0.013   1.086   0.008  0.00  0.00     0.002 C 
ATOM     17  H1  <0> d           0.002  -0.004   0.002  0.00  0.00     0.059 H 
ATOM     18  H2  <0> d           1.010   1.463   0.000  0.00  0.00     0.059 H 
ATOM     19  H3  <0> d          -0.540   1.447  -0.875  0.00  0.00     0.059 H 
ENDBRANCH   1  16
TORSDOF 2
