REMARK  1 active torsions:
REMARK  status: ('A' for Active; 'I' for Inactive)
REMARK    1  A    between atoms: C3_5  and  C4_6 
ROOT
ATOM      1  C1  <0> d          -2.553   1.377   0.016  0.00  0.00    -0.022 A 
ATOM      2  C2  <0> d          -3.416   2.495   0.031  0.00  0.00     0.032 A 
ATOM      3  N1  <0> d          -2.656   3.552   0.033  0.00  0.00    -0.140 NA
ATOM      4  O1  <0> d          -1.482   3.265   0.026  0.00  0.00    -0.207 OA
ATOM      5  C3  <0> d          -1.301   1.930   0.019  0.00  0.00     0.178 A 
ATOM      6  H1  <0> d          -2.819   0.331   0.007  0.00  0.00     0.090 H 
ATOM      7  H2  <0> d          -4.496   2.477   0.035  0.00  0.00     0.118 H 
ENDROOT
BRANCH   5   8
ATOM      8  C4  <0> d          -0.014   1.211   0.009  0.00  0.00     0.236 C 
ATOM      9  O2  <0> d           0.002  -0.004   0.002  0.00  0.00    -0.642 OA
ATOM     10  O3  <0> d           1.143   1.901   0.001  0.00  0.00    -0.642 OA
ENDBRANCH   5   8
TORSDOF 1
