REMARK  9 active torsions:
REMARK  status: ('A' for Active; 'I' for Inactive)
REMARK    1  A    between atoms: C1_1  and  C2_2 
REMARK    2  A    between atoms: C2_2  and  C3_3 
REMARK    3  A    between atoms: C3_3  and  C4_4 
REMARK    4  A    between atoms: C3_3  and  C5_5 
REMARK    5  A    between atoms: C3_3  and  O1_11 
REMARK    6  A    between atoms: C5_5  and  C6_6 
REMARK    7  A    between atoms: C6_6  and  C7_7 
REMARK    8  A    between atoms: C7_7  and  C10_10 
REMARK    9  A    between atoms: C8_8  and  C9_9 
ROOT
ATOM      1  C5  <0> d          -1.440  -0.913  -1.799  0.00  0.00    -0.033 C 
ATOM      2  H9  <0> d          -2.015  -1.473  -1.061  0.00  0.00     0.037 H 
ATOM      3  H10 <0> d          -1.889   0.070  -1.940  0.00  0.00     0.037 H 
ENDROOT
BRANCH   1   4
ATOM      4  C3  <0> d          -1.442  -1.671  -3.128  0.00  0.00     0.054 C 
BRANCH   4   5
ATOM      5  C2  <0> d          -2.867  -1.726  -3.682  0.00  0.00    -0.040 C 
ATOM      6  H4  <0> d          -3.514  -2.238  -2.970  0.00  0.00     0.036 H 
ATOM      7  H5  <0> d          -3.234  -0.712  -3.841  0.00  0.00     0.036 H 
BRANCH   5   8
ATOM      8  C1  <0> d          -2.870  -2.483  -5.011  0.00  0.00    -0.074 C 
ATOM      9  H1  <0> d          -2.223  -1.971  -5.723  0.00  0.00     0.027 H 
ATOM     10  H2  <0> d          -2.503  -3.497  -4.851  0.00  0.00     0.027 H 
ATOM     11  H3  <0> d          -3.885  -2.522  -5.405  0.00  0.00     0.027 H 
ENDBRANCH   5   8
ENDBRANCH   4   5
BRANCH   4  12
ATOM     12  C4  <0> d          -0.534  -0.951  -4.127  0.00  0.00    -0.048 C 
ATOM     13  H6  <0> d           0.481  -0.913  -3.733  0.00  0.00     0.031 H 
ATOM     14  H7  <0> d          -0.536  -1.491  -5.074  0.00  0.00     0.031 H 
ATOM     15  H8  <0> d          -0.901   0.063  -4.286  0.00  0.00     0.031 H 
ENDBRANCH   4  12
BRANCH   4  16
ATOM     16  O1  <0> d          -0.961  -3.001  -2.919  0.00  0.00    -0.390 OA
ATOM     17  H20 <0> d          -1.490  -3.517  -2.296  0.00  0.00     0.210 HD
ENDBRANCH   4  16
ENDBRANCH   1   4
BRANCH   1  18
ATOM     18  C6  <0> d          -0.000  -0.750  -1.307  0.00  0.00    -0.043 C 
ATOM     19  H11 <0> d           0.575  -0.191  -2.045  0.00  0.00     0.039 H 
ATOM     20  H12 <0> d           0.449  -1.734  -1.166  0.00  0.00     0.039 H 
BRANCH  18  21
ATOM     21  C7  <0> d           0.002  -0.004   0.002  0.00  0.00    -0.088 C 
ATOM     22  C8  <0> d           0.022  -0.665   1.133  0.00  0.00    -0.105 C 
ATOM     23  H13 <0> d           0.036  -1.745   1.127  0.00  0.00     0.076 H 
BRANCH  22  24
ATOM     24  C9  <0> d           0.024   0.081   2.442  0.00  0.00    -0.059 C 
ATOM     25  H14 <0> d           0.906   0.720   2.495  0.00  0.00     0.032 H 
ATOM     26  H15 <0> d          -0.874   0.696   2.512  0.00  0.00     0.032 H 
ATOM     27  H16 <0> d           0.042  -0.631   3.267  0.00  0.00     0.032 H 
ENDBRANCH  22  24
BRANCH  21  28
ATOM     28  C10 <0> d          -0.018   1.503   0.010  0.00  0.00    -0.055 C 
ATOM     29  H17 <0> d           1.004   1.880   0.003  0.00  0.00     0.033 H 
ATOM     30  H18 <0> d          -0.545   1.864  -0.873  0.00  0.00     0.033 H 
ATOM     31  H19 <0> d          -0.529   1.854   0.907  0.00  0.00     0.033 H 
ENDBRANCH  21  28
ENDBRANCH  18  21
ENDBRANCH   1  18
TORSDOF 9
