REMARK  1 active torsions:
REMARK  status: ('A' for Active; 'I' for Inactive)
REMARK    1  A    between atoms: C3_4  and  C6_8 
ROOT
ATOM      1  C1  <0> d          -0.017   1.382   0.010  0.00  0.00    -0.055 A 
ATOM      2  C2  <0> d           1.157   2.055   0.002  0.00  0.00    -0.043 A 
ATOM      3  S1  <0> d           2.333   0.857  -0.016  0.00  0.00    -0.094 SA
ATOM      4  C3  <0> d           1.281  -0.582  -0.013  0.00  0.00     0.102 A 
ATOM      5  C4  <0> d           0.002  -0.004   0.002  0.00  0.00     0.069 A 
ATOM      6  C5  <0> d          -1.196  -0.789   0.010  0.00  0.00     0.101 C 
ATOM      7  N1  <0> d          -2.146  -1.411   0.016  0.00  0.00    -0.191 NA
ATOM      8  H1  <0> d          -0.955   1.917   0.026  0.00  0.00     0.086 H 
ATOM      9  H2  <0> d           1.304   3.125   0.006  0.00  0.00     0.095 H 
ENDROOT
BRANCH   4  10
ATOM     10  C6  <0> d           1.653  -1.996  -0.024  0.00  0.00     0.218 C 
ATOM     11  O1  <0> d           2.834  -2.318  -0.037  0.00  0.00    -0.643 OA
ATOM     12  O2  <0> d           0.783  -2.858  -0.021  0.00  0.00    -0.643 OA
ENDBRANCH   4  10
TORSDOF 1
