REMARK  2 active torsions:
REMARK  status: ('A' for Active; 'I' for Inactive)
REMARK    1  A    between atoms: C3_3  and  N3_10 
REMARK    2  A    between atoms: C4_4  and  N2_9 
ROOT
ATOM      1  C1  <0> d          -1.216   1.747   0.017  0.00  0.00    -0.061 A 
ATOM      2  C2  <0> d          -0.013   1.076   0.008  0.00  0.00    -0.054 A 
ATOM      3  C3  <0> d           1.182   1.785   0.000  0.00  0.00     0.052 A 
ATOM      4  C4  <0> d           1.167   3.183   0.008  0.00  0.00     0.053 A 
ATOM      5  C5  <0> d          -0.037   3.860   0.023  0.00  0.00    -0.035 A 
ATOM      6  C6  <0> d          -1.238   3.144   0.031  0.00  0.00     0.046 A 
ATOM      7  C7  <0> d          -2.489   3.842   0.046  0.00  0.00     0.099 C 
ATOM      8  N1  <0> d          -3.481   4.395   0.059  0.00  0.00    -0.191 NA
ATOM      9  H1  <0> d          -2.143   1.193   0.019  0.00  0.00     0.086 H 
ATOM     10  H2  <0> d           0.002  -0.004   0.002  0.00  0.00     0.087 H 
ATOM     11  H3  <0> d          -0.051   4.940   0.029  0.00  0.00     0.089 H 
ENDROOT
BRANCH   4  12
ATOM     12  N2  <0> d           2.372   3.896   0.001  0.00  0.00    -0.397 N 
ATOM     13  H4  <0> d           3.217   3.420  -0.009  0.00  0.00     0.156 HD
ATOM     14  H5  <0> d           2.362   4.866   0.006  0.00  0.00     0.156 HD
ENDBRANCH   4  12
BRANCH   3  15
ATOM     15  N3  <0> d           2.397   1.101  -0.015  0.00  0.00    -0.397 N 
ATOM     16  H6  <0> d           2.408   0.131  -0.021  0.00  0.00     0.156 HD
ATOM     17  H7  <0> d           3.232   1.596  -0.021  0.00  0.00     0.156 HD
ENDBRANCH   3  15
TORSDOF 2
