REMARK  0 active torsions:
REMARK  status: ('A' for Active; 'I' for Inactive)
ROOT
ATOM      1  C1  <0> d           2.407   0.004  -0.021  0.00  0.00    -0.082 A 
ATOM      2  C2  <0> d           1.205  -0.684  -0.013  0.00  0.00    -0.080 A 
ATOM      3  C3  <0> d           0.002  -0.004   0.002  0.00  0.00    -0.049 A 
ATOM      4  C4  <0> d          -0.017   1.384   0.010  0.00  0.00     0.094 A 
ATOM      5  C5  <0> d           1.203   2.078   0.002  0.00  0.00     0.054 A 
ATOM      6  C6  <0> d           2.412   1.383  -0.014  0.00  0.00    -0.066 A 
ATOM      7  C7  <0> d           0.866   3.514   0.013  0.00  0.00     0.260 A 
ATOM      8  O1  <0> d           1.626   4.460   0.010  0.00  0.00    -0.281 OA
ATOM      9  C8  <0> d          -0.635   3.537   0.027  0.00  0.00     0.340 A 
ATOM     10  O2  <0> d          -1.340   4.523   0.040  0.00  0.00    -0.255 OA
ATOM     11  O3  <0> d          -1.050   2.259   0.019  0.00  0.00    -0.272 OA
ATOM     12  H1  <0> d           3.340  -0.540  -0.034  0.00  0.00     0.083 H 
ATOM     13  H2  <0> d           1.208  -1.764  -0.019  0.00  0.00     0.083 H 
ATOM     14  H3  <0> d          -0.927  -0.554   0.008  0.00  0.00     0.087 H 
ATOM     15  H4  <0> d           3.348   1.923  -0.021  0.00  0.00     0.085 H 
ENDROOT
TORSDOF 0
