REMARK  1 active torsions:
REMARK  status: ('A' for Active; 'I' for Inactive)
REMARK    1  A    between atoms: C7_8  and  N2_11 
ROOT
ATOM      1  C1  <0> d           0.002  -0.004   0.002  0.00  0.00    -0.077 A 
ATOM      2  C2  <0> d           1.198  -0.690  -0.013  0.00  0.00    -0.047 A 
ATOM      3  C3  <0> d           2.399   0.008  -0.021  0.00  0.00     0.118 A 
ATOM      4  C4  <0> d           2.384   1.411  -0.013  0.00  0.00     0.086 A 
ATOM      5  C5  <0> d           1.165   2.095   0.002  0.00  0.00     0.133 A 
ATOM      6  C6  <0> d          -0.017   1.382   0.010  0.00  0.00    -0.044 A 
ATOM      7  F1  <0> d           1.144   3.446   0.009  0.00  0.00    -0.205 F 
ATOM      8  C7  <0> d           3.789   1.843  -0.024  0.00  0.00     0.165 A 
ATOM      9  N1  <0> d           4.524   0.765  -0.037  0.00  0.00    -0.109 NA
ATOM     10  O1  <0> d           3.692  -0.377  -0.035  0.00  0.00    -0.211 OA
ATOM     11  H1  <0> d          -0.929  -0.552   0.008  0.00  0.00     0.083 H 
ATOM     12  H2  <0> d           1.201  -1.770  -0.018  0.00  0.00     0.087 H 
ATOM     13  H3  <0> d          -0.961   1.907   0.017  0.00  0.00     0.088 H 
ENDROOT
BRANCH   8  14
ATOM     14  N2  <0> d           4.248   3.152  -0.022  0.00  0.00    -0.381 N 
ATOM     15  H4  <0> d           5.329   3.356  -0.031  0.00  0.00     0.157 HD
ATOM     16  H5  <0> d           3.531   3.986  -0.011  0.00  0.00     0.157 HD
ENDBRANCH   8  14
TORSDOF 1
