REMARK  2 active torsions:
REMARK  status: ('A' for Active; 'I' for Inactive)
REMARK    1  A    between atoms: C2_2  and  N4_10 
REMARK    2  A    between atoms: C3_3  and  N3_9 
ROOT
ATOM      1  C1  <0> d          -0.016   1.354   0.009  0.00  0.00     0.010 A 
ATOM      2  C2  <0> d           0.002  -0.004   0.002  0.00  0.00     0.082 A 
ATOM      3  C3  <0> d           1.250  -0.670  -0.013  0.00  0.00     0.134 A 
ATOM      4  N1  <0> d           2.371   0.038  -0.020  0.00  0.00    -0.180 NA
ATOM      5  C4  <0> d           2.336   1.369  -0.013  0.00  0.00     0.347 A 
ATOM      6  O1  <0> d           3.384   1.996  -0.019  0.00  0.00    -0.245 OA
ATOM      7  N2  <0> d           1.168   2.036   0.002  0.00  0.00    -0.315 N 
ATOM      8  H1  <0> d           1.166   3.036   0.007  0.00  0.00     0.170 HD
ATOM      9  H2  <0> d          -0.955   1.888   0.017  0.00  0.00     0.115 H 
ENDROOT
BRANCH   2  10
ATOM     10  N4  <0> d          -1.198  -0.735   0.010  0.00  0.00    -0.395 N 
ATOM     11  H5  <0> d          -2.049  -0.270   0.021  0.00  0.00     0.156 HD
ATOM     12  H6  <0> d          -1.175  -1.705   0.005  0.00  0.00     0.156 HD
ENDBRANCH   2  10
BRANCH   3  13
ATOM     13  N3  <0> d           1.300  -2.046  -0.021  0.00  0.00    -0.285 NA
ATOM     14  H3  <0> d           0.849  -2.400   0.798  0.00  0.00     0.125 HD
ATOM     15  H4  <0> d           2.157  -2.500  -0.032  0.00  0.00     0.125 HD
ENDBRANCH   3  13
TORSDOF 2
