REMARK  4 active torsions:
REMARK  status: ('A' for Active; 'I' for Inactive)
REMARK    1  A    between atoms: C4_5  and  N2_7 
REMARK    2  A    between atoms: N2_7  and  C6_8 
REMARK    3  A    between atoms: C6_8  and  C7_9 
REMARK    4  A    between atoms: C7_9  and  O1_10 
ROOT
ATOM      1  C1  <0> d           1.176   1.794   0.001  0.00  0.00    -0.078 A 
ATOM      2  C2  <0> d          -0.013   1.076   0.008  0.00  0.00    -0.066 A 
ATOM      3  C3  <0> d          -1.213   1.757   0.017  0.00  0.00     0.004 A 
ATOM      4  N1  <0> d          -1.243   3.076   0.030  0.00  0.00    -0.244 NA
ATOM      5  C4  <0> d          -0.132   3.796   0.024  0.00  0.00     0.123 A 
ATOM      6  C5  <0> d           1.114   3.175   0.009  0.00  0.00    -0.039 A 
ATOM      7  H1  <0> d           2.129   1.284  -0.011  0.00  0.00     0.083 H 
ATOM      8  H2  <0> d           0.002  -0.004   0.002  0.00  0.00     0.085 H 
ATOM      9  H3  <0> d          -2.140   1.202   0.018  0.00  0.00     0.114 H 
ATOM     10  H4  <0> d           2.019   3.764   0.003  0.00  0.00     0.089 H 
ENDROOT
BRANCH   5  11
ATOM     11  N2  <0> d          -0.210   5.183   0.032  0.00  0.00    -0.373 N 
ATOM     12  H5  <0> d          -1.075   5.620   0.043  0.00  0.00     0.161 HD
BRANCH  11  13
ATOM     13  C6  <0> d           1.016   5.986   0.025  0.00  0.00     0.013 C 
ATOM     14  H6  <0> d           1.610   5.750   0.908  0.00  0.00     0.067 H 
ATOM     15  H7  <0> d           1.593   5.760  -0.872  0.00  0.00     0.067 H 
BRANCH  13  16
ATOM     16  C7  <0> d           0.652   7.472   0.036  0.00  0.00     0.031 C 
ATOM     17  H8  <0> d           1.560   8.069  -0.059  0.00  0.00     0.076 H 
ATOM     18  H9  <0> d          -0.015   7.689  -0.798  0.00  0.00     0.076 H 
BRANCH  16  19
ATOM     19  O1  <0> d          -0.002   7.793   1.265  0.00  0.00    -0.399 OA
ATOM     20  H10 <0> d          -0.262   8.721   1.342  0.00  0.00     0.209 HD
ENDBRANCH  16  19
ENDBRANCH  13  16
ENDBRANCH  11  13
ENDBRANCH   5  11
TORSDOF 4
