REMARK  2 active torsions:
REMARK  status: ('A' for Active; 'I' for Inactive)
REMARK    1  A    between atoms: C6_6  and  C7_7 
REMARK    2  A    between atoms: C7_7  and  N2_11 
ROOT
ATOM      1  C7  <0> d           0.002  -0.004   0.002  0.00  0.00     0.237 C 
ATOM      2  H1  <0> d           0.976  -0.384   0.344  0.00  0.00     0.119 H 
ATOM      3  C8  <0> d          -0.245  -0.491  -1.365  0.00  0.00     0.100 C 
ATOM      4  N1  <0> d          -0.436  -0.866  -2.420  0.00  0.00    -0.195 NA
ENDROOT
BRANCH   1   5
ATOM      5  C6  <0> d          -0.018   1.503   0.010  0.00  0.00    -0.012 A 
ATOM      6  C1  <0> d          -1.225   2.177   0.020  0.00  0.00    -0.071 A 
ATOM      7  C2  <0> d          -1.245   3.559   0.033  0.00  0.00    -0.045 A 
ATOM      8  H2  <0> d          -2.153   1.624   0.021  0.00  0.00     0.084 H 
ATOM      9  C3  <0> d          -0.056   4.268   0.025  0.00  0.00     0.116 A 
ATOM     10  H3  <0> d          -2.188   4.085   0.045  0.00  0.00     0.088 H 
ATOM     11  C4  <0> d           1.152   3.591   0.010  0.00  0.00    -0.045 A 
ATOM     12  F1  <0> d          -0.074   5.619   0.032  0.00  0.00    -0.206 F 
ATOM     13  C5  <0> d           1.170   2.210   0.003  0.00  0.00    -0.071 A 
ATOM     14  H4  <0> d           2.080   4.144   0.003  0.00  0.00     0.088 H 
ATOM     15  H5  <0> d           2.112   1.682  -0.009  0.00  0.00     0.084 H 
ENDBRANCH   1   5
BRANCH   1  16
ATOM     16  N2  <0> d          -1.044  -0.513   0.900  0.00  0.00     0.100 N 
ATOM     17  H6  <0> d          -1.029  -1.613   0.894  0.00  0.00     0.315 HD
ATOM     18  H7  <0> d          -0.859  -0.149   1.921  0.00  0.00     0.315 HD
ENDBRANCH   1  16
TORSDOF 2
