REMARK  5 active torsions:
REMARK  status: ('A' for Active; 'I' for Inactive)
REMARK    1  A    between atoms: C1_1  and  C2_2 
REMARK    2  A    between atoms: C2_2  and  C3_3 
REMARK    3  A    between atoms: C3_3  and  C7_8 
REMARK    4  A    between atoms: C4_4  and  C5_5 
REMARK    5  A    between atoms: C4_4  and  C6_6 
ROOT
ATOM      1  C3  <0> d          -0.665   1.574   1.210  0.00  0.00    -0.071 C 
ATOM      2  C4  <0> d          -1.579   0.857   1.860  0.00  0.00     0.017 C 
ENDROOT
BRANCH   1   3
ATOM      3  C2  <0> d          -0.011   1.018  -0.028  0.00  0.00    -0.047 C 
ATOM      4  H4  <0> d          -0.046  -0.071   0.000  0.00  0.00     0.039 H 
ATOM      5  H5  <0> d           1.027   1.347  -0.070  0.00  0.00     0.039 H 
BRANCH   3   6
ATOM      6  C1  <0> d          -0.756   1.519  -1.267  0.00  0.00    -0.073 C 
ATOM      7  H1  <0> d          -0.283   1.117  -2.163  0.00  0.00     0.028 H 
ATOM      8  H2  <0> d          -1.794   1.190  -1.225  0.00  0.00     0.028 H 
ATOM      9  H3  <0> d          -0.721   2.608  -1.296  0.00  0.00     0.028 H 
ENDBRANCH   3   6
ENDBRANCH   1   3
BRANCH   1  10
ATOM     10  C7  <0> d          -0.284   2.943   1.713  0.00  0.00    -0.054 C 
ATOM     11  H9  <0> d           0.536   3.335   1.113  0.00  0.00     0.033 H 
ATOM     12  H10 <0> d          -1.143   3.610   1.636  0.00  0.00     0.033 H 
ATOM     13  H11 <0> d           0.029   2.873   2.755  0.00  0.00     0.033 H 
ENDBRANCH   1  10
BRANCH   2  14
ATOM     14  C5  <0> d          -1.876  -0.555   1.426  0.00  0.00    -0.045 C 
ATOM     15  H6  <0> d          -1.221  -1.245   1.959  0.00  0.00     0.033 H 
ATOM     16  H7  <0> d          -2.915  -0.794   1.653  0.00  0.00     0.033 H 
ATOM     17  H8  <0> d          -1.707  -0.649   0.353  0.00  0.00     0.033 H 
ENDBRANCH   2  14
BRANCH   2  18
ATOM     18  C6  <0> d          -2.298   1.442   3.000  0.00  0.00     0.205 C 
ATOM     19  O1  <0> d          -2.134   2.612   3.286  0.00  0.00    -0.644 OA
ATOM     20  O2  <0> d          -3.139   0.681   3.728  0.00  0.00    -0.644 OA
ENDBRANCH   2  18
TORSDOF 5
