REMARK  4 active torsions:
REMARK  status: ('A' for Active; 'I' for Inactive)
REMARK    1  A    between atoms: C1_1  and  C2_2 
REMARK    2  A    between atoms: C2_2  and  C3_3 
REMARK    3  A    between atoms: C4_5  and  C6_8 
REMARK    4  A    between atoms: C6_8  and  O1_9 
ROOT
ATOM      1  C3  <0> d           2.104   5.147   0.009  0.00  0.00     0.075 A 
ATOM      2  N1  <0> d           2.211   3.838   0.007  0.00  0.00    -0.248 NA
ATOM      3  C4  <0> d           1.147   3.062   0.008  0.00  0.00     0.065 A 
ATOM      4  C5  <0> d          -0.078   3.647   0.022  0.00  0.00    -0.017 A 
ATOM      5  S1  <0> d           0.382   5.373   0.027  0.00  0.00    -0.085 SA
ATOM      6  H6  <0> d          -1.058   3.194   0.029  0.00  0.00     0.098 H 
ENDROOT
BRANCH   1   7
ATOM      7  C2  <0> d           3.195   6.186   0.005  0.00  0.00    -0.022 C 
ATOM      8  H4  <0> d           2.850   7.079   0.526  0.00  0.00     0.042 H 
ATOM      9  H5  <0> d           4.077   5.789   0.508  0.00  0.00     0.042 H 
BRANCH   7  10
ATOM     10  C1  <0> d           3.551   6.545  -1.439  0.00  0.00    -0.071 C 
ATOM     11  H1  <0> d           3.897   5.652  -1.961  0.00  0.00     0.028 H 
ATOM     12  H2  <0> d           2.670   6.942  -1.943  0.00  0.00     0.028 H 
ATOM     13  H3  <0> d           4.341   7.296  -1.443  0.00  0.00     0.028 H 
ENDBRANCH   7  10
ENDBRANCH   1   7
BRANCH   3  14
ATOM     14  C6  <0> d           1.286   1.562  -0.002  0.00  0.00     0.057 C 
ATOM     15  H7  <0> d           1.840   1.243   0.881  0.00  0.00     0.083 H 
ATOM     16  H8  <0> d           1.823   1.252  -0.899  0.00  0.00     0.083 H 
BRANCH  14  17
ATOM     17  O1  <0> d          -0.011   0.963   0.007  0.00  0.00    -0.395 OA
ATOM     18  H9  <0> d           0.002  -0.004   0.002  0.00  0.00     0.209 HD
ENDBRANCH  14  17
ENDBRANCH   3  14
TORSDOF 4
