REMARK  1 active torsions:
REMARK  status: ('A' for Active; 'I' for Inactive)
REMARK    1  A    between atoms: C1_1  and  C2_2 
ROOT
ATOM      1  C2  <0> d           2.077   4.173   0.005  0.00  0.00     0.083 A 
ATOM      2  C3  <0> d           1.110   3.182   0.009  0.00  0.00     0.085 A 
ATOM      3  C4  <0> d           1.154   1.775   0.001  0.00  0.00    -0.053 A 
ATOM      4  C5  <0> d          -0.013   1.076   0.008  0.00  0.00    -0.079 A 
ATOM      5  C6  <0> d          -1.237   1.765   0.018  0.00  0.00    -0.066 A 
ATOM      6  C7  <0> d          -1.263   3.114   0.030  0.00  0.00     0.006 A 
ATOM      7  N1  <0> d          -0.102   3.830   0.024  0.00  0.00    -0.225 N 
ATOM      8  N2  <0> d           0.190   5.199   0.028  0.00  0.00    -0.061 NA
ATOM      9  N3  <0> d           1.468   5.350   0.017  0.00  0.00    -0.134 NA
ATOM     10  H4  <0> d           2.102   1.257  -0.012  0.00  0.00     0.087 H 
ATOM     11  H5  <0> d           0.002  -0.004   0.002  0.00  0.00     0.083 H 
ATOM     12  H6  <0> d          -2.164   1.211   0.018  0.00  0.00     0.085 H 
ATOM     13  H7  <0> d          -2.211   3.632   0.042  0.00  0.00     0.114 H 
ENDROOT
BRANCH   1  14
ATOM     14  C1  <0> d           3.568   3.951  -0.010  0.00  0.00    -0.032 C 
ATOM     15  H1  <0> d           3.917   3.903  -1.042  0.00  0.00     0.035 H 
ATOM     16  H2  <0> d           4.063   4.776   0.503  0.00  0.00     0.035 H 
ATOM     17  H3  <0> d           3.801   3.015   0.496  0.00  0.00     0.035 H 
ENDBRANCH   1  14
TORSDOF 1
