REMARK  5 active torsions:
REMARK  status: ('A' for Active; 'I' for Inactive)
REMARK    1  A    between atoms: C1_1  and  C2_2 
REMARK    2  A    between atoms: C2_2  and  C3_3 
REMARK    3  A    between atoms: C3_3  and  C4_4 
REMARK    4  A    between atoms: C5_5  and  C6_9 
REMARK    5  A    between atoms: C6_9  and  C7_10 
ROOT
ATOM      1  C4  <0> d          -2.634  -0.101   1.797  0.00  0.00     0.072 A 
ATOM      2  C5  <0> d          -2.143   1.058   1.278  0.00  0.00     0.029 A 
ATOM      3  S1  <0> d          -3.583   1.766   0.626  0.00  0.00     0.032 SA
ATOM      4  N1  <0> d          -4.619   0.646   1.028  0.00  0.00    -0.110 NA
ATOM      5  N2  <0> d          -3.932  -0.252   1.638  0.00  0.00    -0.146 NA
ENDROOT
BRANCH   1   6
ATOM      6  C3  <0> d          -1.768  -1.119   2.495  0.00  0.00    -0.022 C 
ATOM      7  H6  <0> d          -2.190  -2.113   2.352  0.00  0.00     0.042 H 
ATOM      8  H7  <0> d          -0.762  -1.087   2.078  0.00  0.00     0.042 H 
BRANCH   6   9
ATOM      9  C2  <0> d          -1.711  -0.799   3.990  0.00  0.00    -0.063 C 
ATOM     10  H4  <0> d          -1.289   0.196   4.133  0.00  0.00     0.033 H 
ATOM     11  H5  <0> d          -2.717  -0.831   4.407  0.00  0.00     0.033 H 
BRANCH   9  12
ATOM     12  C1  <0> d          -0.833  -1.832   4.699  0.00  0.00    -0.076 C 
ATOM     13  H1  <0> d          -0.792  -1.605   5.764  0.00  0.00     0.027 H 
ATOM     14  H2  <0> d          -1.254  -2.827   4.556  0.00  0.00     0.027 H 
ATOM     15  H3  <0> d           0.174  -1.801   4.281  0.00  0.00     0.027 H 
ENDBRANCH   9  12
ENDBRANCH   6   9
ENDBRANCH   1   6
BRANCH   2  16
ATOM     16  C6  <0> d          -0.729   1.579   1.267  0.00  0.00    -0.035 C 
ATOM     17  H8  <0> d          -0.202   1.218   2.150  0.00  0.00     0.040 H 
ATOM     18  H9  <0> d          -0.744   2.669   1.273  0.00  0.00     0.040 H 
BRANCH  16  19
ATOM     19  C7  <0> d          -0.013   1.086   0.008  0.00  0.00    -0.072 C 
ATOM     20  H10 <0> d           0.002  -0.004   0.002  0.00  0.00     0.028 H 
ATOM     21  H11 <0> d           1.010   1.463   0.000  0.00  0.00     0.028 H 
ATOM     22  H12 <0> d          -0.540   1.447  -0.875  0.00  0.00     0.028 H 
ENDBRANCH  16  19
ENDBRANCH   2  16
TORSDOF 5
