REMARK  7 active torsions:
REMARK  status: ('A' for Active; 'I' for Inactive)
REMARK    1  A    between atoms: C1_1  and  C2_2 
REMARK    2  A    between atoms: C2_2  and  C3_3 
REMARK    3  A    between atoms: C3_3  and  C4_5 
REMARK    4  A    between atoms: C3_3  and  C5_6 
REMARK    5  A    between atoms: C5_6  and  O1_7 
REMARK    6  A    between atoms: O1_7  and  C6_8 
REMARK    7  A    between atoms: C6_8  and  C7_10 
ROOT
ATOM      1  C3  <0> d          -0.729   1.579   1.267  0.00  0.00    -0.037 C 
ATOM      2  H1  <0> d          -1.776   1.277   1.232  0.00  0.00     0.042 H 
ENDROOT
BRANCH   1   3
ATOM      3  C2  <0> d          -0.064   0.971   2.503  0.00  0.00    -0.064 C 
ATOM      4  H5  <0> d          -0.047  -0.115   2.410  0.00  0.00     0.033 H 
ATOM      5  H6  <0> d           0.957   1.344   2.587  0.00  0.00     0.033 H 
BRANCH   3   6
ATOM      6  C1  <0> d          -0.855   1.364   3.753  0.00  0.00    -0.076 C 
ATOM      7  H2  <0> d          -0.871   2.450   3.846  0.00  0.00     0.027 H 
ATOM      8  H3  <0> d          -1.875   0.991   3.669  0.00  0.00     0.027 H 
ATOM      9  H4  <0> d          -0.381   0.931   4.634  0.00  0.00     0.027 H 
ENDBRANCH   3   6
ENDBRANCH   1   3
BRANCH   1  10
ATOM     10  C4  <0> d          -0.641   3.105   1.339  0.00  0.00    -0.071 C 
ATOM     11  H7  <0> d           0.406   3.407   1.374  0.00  0.00     0.028 H 
ATOM     12  H8  <0> d          -1.115   3.538   0.458  0.00  0.00     0.028 H 
ATOM     13  H9  <0> d          -1.151   3.457   2.235  0.00  0.00     0.028 H 
ENDBRANCH   1  10
BRANCH   1  14
ATOM     14  C5  <0> d          -0.013   1.086   0.008  0.00  0.00     0.032 C 
ATOM     15  H10 <0> d           0.002  -0.004   0.002  0.00  0.00     0.075 H 
ATOM     16  H11 <0> d           1.010   1.463   0.000  0.00  0.00     0.075 H 
BRANCH  14  17
ATOM     17  O1  <0> d          -0.715   1.567  -1.168  0.00  0.00    -0.321 OA
BRANCH  17  18
ATOM     18  C6  <0> d          -0.211   1.220  -2.363  0.00  0.00     0.254 C 
ATOM     19  O2  <0> d           0.783   0.536  -2.424  0.00  0.00    -0.266 OA
BRANCH  18  20
ATOM     20  C7  <0> d          -0.887   1.682  -3.629  0.00  0.00     0.004 C 
ATOM     21  H12 <0> d          -1.760   2.282  -3.376  0.00  0.00     0.041 H 
ATOM     22  H13 <0> d          -0.190   2.282  -4.214  0.00  0.00     0.041 H 
ATOM     23  H14 <0> d          -1.198   0.815  -4.212  0.00  0.00     0.041 H 
ENDBRANCH  18  20
ENDBRANCH  17  18
ENDBRANCH  14  17
ENDBRANCH   1  14
TORSDOF 7
