REMARK  3 active torsions:
REMARK  status: ('A' for Active; 'I' for Inactive)
REMARK    1  A    between atoms: C1_1  and  C2_2 
REMARK    2  A    between atoms: C2_2  and  C3_3 
REMARK    3  A    between atoms: C7_7  and  O1_9 
ROOT
ATOM      1  C3  <0> d          -0.718   1.572   1.248  0.00  0.00    -0.056 A 
ATOM      2  C4  <0> d          -0.359   2.779   1.818  0.00  0.00    -0.075 A 
ATOM      3  C5  <0> d          -1.007   3.231   2.953  0.00  0.00    -0.059 A 
ATOM      4  C6  <0> d          -2.009   2.470   3.526  0.00  0.00     0.067 A 
ATOM      5  C7  <0> d          -2.368   1.255   2.958  0.00  0.00     0.087 A 
ATOM      6  C8  <0> d          -1.719   0.808   1.817  0.00  0.00    -0.043 A 
ATOM      7 Cl1  <0> d          -2.819   3.034   4.955  0.00  0.00    -0.081 Cl
ATOM      8  H6  <0> d           0.426   3.373   1.374  0.00  0.00     0.084 H 
ATOM      9  H7  <0> d          -0.728   4.176   3.394  0.00  0.00     0.086 H 
ATOM     10  H8  <0> d          -1.995  -0.137   1.373  0.00  0.00     0.088 H 
ENDROOT
BRANCH   1  11
ATOM     11  C2  <0> d          -0.013   1.086   0.008  0.00  0.00    -0.044 C 
ATOM     12  H4  <0> d           0.002  -0.014   0.002  0.00  0.00     0.039 H 
ATOM     13  H5  <0> d           1.019   1.466   0.000  0.00  0.00     0.039 H 
BRANCH  11  14
ATOM     14  C1  <0> d          -0.753   1.593  -1.232  0.00  0.00    -0.073 C 
ATOM     15  H1  <0> d          -0.238   1.238  -2.136  0.00  0.00     0.028 H 
ATOM     16  H2  <0> d          -0.768   2.693  -1.225  0.00  0.00     0.028 H 
ATOM     17  H3  <0> d          -1.785   1.212  -1.224  0.00  0.00     0.028 H 
ENDBRANCH  11  14
ENDBRANCH   1  11
BRANCH   5  18
ATOM     18  O1  <0> d          -3.353   0.505   3.519  0.00  0.00    -0.359 OA
ATOM     19  H9  <0> d          -3.636  -0.458   3.068  0.00  0.00     0.217 HD
ENDBRANCH   5  18
TORSDOF 3
