REMARK  1 active torsions:
REMARK  status: ('A' for Active; 'I' for Inactive)
REMARK    1  A    between atoms: C1_1  and  C2_2 
ROOT
ATOM      1  C2  <0> d           0.002  -0.004   0.002  0.00  0.00    -0.034 A 
ATOM      2  C3  <0> d           0.009  -0.797  -1.081  0.00  0.00    -0.016 A 
ATOM      3  N1  <0> d           0.028  -2.110  -0.699  0.00  0.00    -0.365 N 
ATOM      4  H1  <0> d           0.036  -2.867  -1.305  0.00  0.00     0.165 HD
ATOM      5  C4  <0> d           0.035  -2.197   0.676  0.00  0.00     0.042 A 
ATOM      6  C5  <0> d           0.025  -0.882   1.175  0.00  0.00    -0.002 A 
ATOM      7  C6  <0> d           0.035  -0.659   2.553  0.00  0.00    -0.070 A 
ATOM      8  C7  <0> d           0.057  -1.723   3.411  0.00  0.00    -0.082 A 
ATOM      9  C8  <0> d           0.071  -3.022   2.924  0.00  0.00    -0.081 A 
ATOM     10  C9  <0> d           0.052  -3.264   1.567  0.00  0.00    -0.056 A 
ATOM     11  H5  <0> d          -0.001  -0.449  -2.104  0.00  0.00     0.112 H 
ATOM     12  H6  <0> d           0.025   0.349   2.939  0.00  0.00     0.084 H 
ATOM     13  H7  <0> d           0.065  -1.550   4.477  0.00  0.00     0.083 H 
ATOM     14  H8  <0> d           0.089  -3.852   3.615  0.00  0.00     0.083 H 
ATOM     15  H9  <0> d           0.064  -4.279   1.198  0.00  0.00     0.086 H 
ENDROOT
BRANCH   1  16
ATOM     16  C1  <0> d          -0.018   1.503   0.010  0.00  0.00    -0.049 C 
ATOM     17  H2  <0> d           1.004   1.880   0.003  0.00  0.00     0.033 H 
ATOM     18  H3  <0> d          -0.545   1.864  -0.873  0.00  0.00     0.033 H 
ATOM     19  H4  <0> d          -0.529   1.854   0.907  0.00  0.00     0.033 H 
ENDBRANCH   1  16
TORSDOF 1
