REMARK  2 active torsions:
REMARK  status: ('A' for Active; 'I' for Inactive)
REMARK    1  A    between atoms: C3_3  and  C5_7 
REMARK    2  A    between atoms: C5_7  and  C6_9 
ROOT
ATOM      1  C6  <0> d           1.982  -2.208  -2.368  0.00  0.00     0.072 C 
ATOM      2  C7  <0> d           1.461  -2.860  -3.581  0.00  0.00     0.066 C 
ATOM      3  N1  <0> d           1.059  -3.363  -4.517  0.00  0.00    -0.197 NA
ATOM      4  H8  <0> d           2.892  -1.642  -2.618  0.00  0.00     0.066 H 
ATOM      5  H9  <0> d           2.221  -2.973  -1.615  0.00  0.00     0.066 H 
ENDROOT
BRANCH   1   6
ATOM      6  C5  <0> d           0.941  -1.269  -1.816  0.00  0.00     0.168 C 
ATOM      7  O2  <0> d          -0.124  -1.153  -2.374  0.00  0.00    -0.294 OA
BRANCH   6   8
ATOM      8  C3  <0> d           1.229  -0.474  -0.569  0.00  0.00     0.096 C 
ATOM      9  C2  <0> d           2.084   0.763  -0.920  0.00  0.00    -0.032 C 
ATOM     10  C1  <0> d           1.473   1.857  -0.002  0.00  0.00    -0.043 C 
ATOM     11  H4  <0> d           1.984   1.069  -1.971  0.00  0.00     0.037 H 
ATOM     12  H5  <0> d           3.148   0.632  -0.675  0.00  0.00     0.037 H 
ATOM     13  C4  <0> d          -0.017   1.432   0.010  0.00  0.00     0.021 C 
ATOM     14  H2  <0> d           1.561   2.874  -0.412  0.00  0.00     0.036 H 
ATOM     15  H3  <0> d           1.867   1.840   1.025  0.00  0.00     0.036 H 
ATOM     16  O1  <0> d           0.002  -0.004   0.002  0.00  0.00    -0.378 OA
ATOM     17  H6  <0> d          -0.504   1.825   0.915  0.00  0.00     0.074 H 
ATOM     18  H7  <0> d          -0.521   1.835  -0.881  0.00  0.00     0.074 H 
ATOM     19  H1  <0> d           1.706  -1.132   0.172  0.00  0.00     0.095 H 
ENDBRANCH   6   8
ENDBRANCH   1   6
TORSDOF 2
