REMARK  2 active torsions:
REMARK  status: ('A' for Active; 'I' for Inactive)
REMARK    1  A    between atoms: C1_1  and  C2_2 
REMARK    2  A    between atoms: C2_2  and  C3_3 
ROOT
ATOM      1  C3  <0> d          -0.718   1.572   1.248  0.00  0.00     0.074 A 
ATOM      2  N1  <0> d          -1.687   0.998   1.924  0.00  0.00    -0.258 NA
ATOM      3  C4  <0> d          -2.197   1.558   3.001  0.00  0.00     0.009 A 
ATOM      4  C5  <0> d          -1.706   2.759   3.399  0.00  0.00    -0.026 A 
ATOM      5  S1  <0> d          -0.464   3.037   2.144  0.00  0.00    -0.085 SA
ATOM      6  H6  <0> d          -2.990   1.075   3.553  0.00  0.00     0.115 H 
ATOM      7  H7  <0> d          -1.987   3.376   4.240  0.00  0.00     0.097 H 
ENDROOT
BRANCH   1   8
ATOM      8  C2  <0> d          -0.013   1.086   0.008  0.00  0.00    -0.022 C 
ATOM      9  H4  <0> d           0.002  -0.004   0.002  0.00  0.00     0.042 H 
ATOM     10  H5  <0> d           1.010   1.463   0.000  0.00  0.00     0.042 H 
BRANCH   8  11
ATOM     11  C1  <0> d          -0.753   1.593  -1.232  0.00  0.00    -0.071 C 
ATOM     12  H1  <0> d          -0.767   2.683  -1.226  0.00  0.00     0.028 H 
ATOM     13  H2  <0> d          -0.242   1.241  -2.128  0.00  0.00     0.028 H 
ATOM     14  H3  <0> d          -1.775   1.215  -1.224  0.00  0.00     0.028 H 
ENDBRANCH   8  11
ENDBRANCH   1   8
TORSDOF 2
