REMARK  2 active torsions:
REMARK  status: ('A' for Active; 'I' for Inactive)
REMARK    1  A    between atoms: C5_6  and  C6_7 
REMARK    2  A    between atoms: C6_7  and  O1_8 
ROOT
ATOM      1  C1  <0> d          -1.197   3.804   0.033  0.00  0.00    -0.056 A 
ATOM      2  C2  <0> d           0.024   4.452   0.025  0.00  0.00     0.003 A 
ATOM      3  N1  <0> d           1.151   3.767   0.011  0.00  0.00    -0.271 NA
ATOM      4  C3  <0> d           1.161   2.448   0.004  0.00  0.00     0.023 A 
ATOM      5  C4  <0> d          -0.021   1.732   0.012  0.00  0.00     0.059 A 
ATOM      6  C5  <0> d          -1.228   2.418   0.021  0.00  0.00    -0.010 A 
ATOM      7 Cl1  <0> d           0.002  -0.004   0.002  0.00  0.00    -0.082 Cl
ATOM      8  H1  <0> d          -2.117   4.371   0.044  0.00  0.00     0.086 H 
ATOM      9  H2  <0> d           0.055   5.531   0.030  0.00  0.00     0.114 H 
ATOM     10  H3  <0> d           2.104   1.922  -0.007  0.00  0.00     0.117 H 
ENDROOT
BRANCH   6  11
ATOM     11  C6  <0> d          -2.538   1.675   0.024  0.00  0.00     0.042 C 
ATOM     12  H4  <0> d          -2.606   1.048  -0.878  0.00  0.00     0.081 H 
ATOM     13  H5  <0> d          -2.597   1.038   0.919  0.00  0.00     0.081 H 
BRANCH  11  14
ATOM     14  O1  <0> d          -3.617   2.612   0.034  0.00  0.00    -0.396 OA
ATOM     15  H6  <0> d          -4.657   2.253   0.037  0.00  0.00     0.209 HD
ENDBRANCH  11  14
ENDBRANCH   6  11
TORSDOF 2
