REMARK  2 active torsions:
REMARK  status: ('A' for Active; 'I' for Inactive)
REMARK    1  A    between atoms: C1_1  and  C2_2 
REMARK    2  A    between atoms: C4_4  and  O3_10 
ROOT
ATOM      1  C2  <0> d           0.002  -0.004   0.002  0.00  0.00     0.051 C 
ATOM      2  C3  <0> d          -1.138  -0.640   0.004  0.00  0.00    -0.047 C 
ATOM      3  C4  <0> d          -1.244  -2.140   0.014  0.00  0.00     0.062 C 
ATOM      4  H1  <0> d          -1.458  -2.482   1.026  0.00  0.00     0.090 H 
ATOM      5  C5  <0> d           0.079  -2.751  -0.463  0.00  0.00     0.043 C 
ATOM      6  C6  <0> d           1.202  -1.968   0.192  0.00  0.00     0.266 C 
ATOM      7  O1  <0> d           2.051  -2.511   0.857  0.00  0.00    -0.265 OA
ATOM      8  O2  <0> d           1.202  -0.631  -0.013  0.00  0.00    -0.284 OA
ATOM      9  H5  <0> d          -2.050  -0.061  -0.001  0.00  0.00     0.084 H 
ATOM     10  H6  <0> d           0.134  -3.797  -0.164  0.00  0.00     0.052 H 
ATOM     11  H7  <0> d           0.155  -2.670  -1.548  0.00  0.00     0.052 H 
ENDROOT
BRANCH   1  12
ATOM     12  C1  <0> d          -0.018   1.503   0.010  0.00  0.00    -0.031 C 
ATOM     13  H2  <0> d           1.004   1.880   0.003  0.00  0.00     0.036 H 
ATOM     14  H3  <0> d          -0.545   1.864  -0.873  0.00  0.00     0.036 H 
ATOM     15  H4  <0> d          -0.529   1.854   0.907  0.00  0.00     0.036 H 
ENDBRANCH   1  12
BRANCH   3  16
ATOM     16  O3  <0> d          -2.299  -2.549  -0.860  0.00  0.00    -0.391 OA
ATOM     17  H8  <0> d          -3.168  -2.199  -0.617  0.00  0.00     0.210 HD
ENDBRANCH   3  16
TORSDOF 2
