REMARK  7 active torsions:
REMARK  status: ('A' for Active; 'I' for Inactive)
REMARK    1  A    between atoms: C1_1  and  C2_2 
REMARK    2  A    between atoms: C2_2  and  O1_3 
REMARK    3  A    between atoms: O1_3  and  C3_4 
REMARK    4  A    between atoms: C3_4  and  C4_6 
REMARK    5  A    between atoms: C3_4  and  O2_7 
REMARK    6  A    between atoms: O2_7  and  C5_8 
REMARK    7  A    between atoms: C5_8  and  C6_9 
ROOT
ATOM      1  C6  <0> d          -0.381   2.142  -1.082  0.00  0.00    -0.091 C 
ATOM      2  C7  <0> d          -0.934   2.517  -2.047  0.00  0.00    -0.152 C 
ATOM      3  H12 <0> d          -1.429   2.852  -2.911  0.00  0.00     0.166 H 
ENDROOT
BRANCH   1   4
ATOM      4  C5  <0> d           0.312   1.672   0.128  0.00  0.00     0.076 C 
ATOM      5  H10 <0> d           0.752   0.693  -0.062  0.00  0.00     0.094 H 
ATOM      6  H11 <0> d           1.099   2.378   0.393  0.00  0.00     0.094 H 
BRANCH   4   7
ATOM      7  O2  <0> d          -0.622   1.573   1.205  0.00  0.00    -0.350 OA
BRANCH   7   8
ATOM      8  C3  <0> d          -0.073   1.018   2.402  0.00  0.00     0.128 C 
ATOM      9  H1  <0> d           0.975   1.305   2.488  0.00  0.00     0.128 H 
BRANCH   8  10
ATOM     10  O1  <0> d          -0.175  -0.407   2.355  0.00  0.00    -0.362 OA
BRANCH  10  11
ATOM     11  C2  <0> d           0.760  -1.028   1.472  0.00  0.00     0.019 C 
ATOM     12  H5  <0> d           0.528  -0.751   0.444  0.00  0.00     0.073 H 
ATOM     13  H6  <0> d           1.769  -0.696   1.719  0.00  0.00     0.073 H 
BRANCH  11  14
ATOM     14  C1  <0> d           0.672  -2.548   1.623  0.00  0.00    -0.056 C 
ATOM     15  H2  <0> d           0.904  -2.825   2.651  0.00  0.00     0.030 H 
ATOM     16  H3  <0> d          -0.336  -2.880   1.376  0.00  0.00     0.030 H 
ATOM     17  H4  <0> d           1.386  -3.022   0.949  0.00  0.00     0.030 H 
ENDBRANCH  11  14
ENDBRANCH  10  11
ENDBRANCH   8  10
BRANCH   8  18
ATOM     18  C4  <0> d          -0.848   1.546   3.611  0.00  0.00    -0.031 C 
ATOM     19  H7  <0> d          -0.430   1.122   4.524  0.00  0.00     0.034 H 
ATOM     20  H8  <0> d          -0.771   2.632   3.646  0.00  0.00     0.034 H 
ATOM     21  H9  <0> d          -1.896   1.259   3.524  0.00  0.00     0.034 H 
ENDBRANCH   8  18
ENDBRANCH   7   8
ENDBRANCH   4   7
ENDBRANCH   1   4
TORSDOF 7
