REMARK  0 active torsions:
REMARK  status: ('A' for Active; 'I' for Inactive)
ROOT
ATOM      1  C1  <0> d          -0.016   1.355   0.009  0.00  0.00     0.019 A 
ATOM      2  C2  <0> d           1.149   2.052   0.002  0.00  0.00     0.141 A 
ATOM      3  N1  <0> d           2.321   1.423  -0.013  0.00  0.00    -0.242 NA
ATOM      4  C3  <0> d           2.382   0.114  -0.020  0.00  0.00     0.069 A 
ATOM      5  C4  <0> d           1.190  -0.646  -0.013  0.00  0.00     0.262 A 
ATOM      6  O1  <0> d           1.234  -1.865  -0.019  0.00  0.00    -0.267 OA
ATOM      7  N2  <0> d           0.002  -0.004   0.002  0.00  0.00    -0.329 N 
ATOM      8  H1  <0> d          -0.828  -0.507   0.007  0.00  0.00     0.168 HD
ATOM      9 Cl1  <0> d           1.109   3.787   0.012  0.00  0.00    -0.061 Cl
ATOM     10  H2  <0> d          -0.959   1.882   0.026  0.00  0.00     0.116 H 
ATOM     11  H3  <0> d           3.340  -0.383  -0.033  0.00  0.00     0.123 H 
ENDROOT
TORSDOF 0
