REMARK  1 active torsions:
REMARK  status: ('A' for Active; 'I' for Inactive)
REMARK    1  A    between atoms: C1_1  and  C2_2 
ROOT
ATOM      1  C2  <0> d          -0.017   1.380   0.010  0.00  0.00    -0.037 A 
ATOM      2  C3  <0> d           0.002  -0.004   0.002  0.00  0.00    -0.059 A 
ATOM      3  C4  <0> d           1.217  -0.665  -0.013  0.00  0.00     0.004 A 
ATOM      4  N1  <0> d           2.356   0.001  -0.020  0.00  0.00    -0.247 NA
ATOM      5  C5  <0> d           2.392   1.318  -0.014  0.00  0.00     0.146 A 
ATOM      6  C6  <0> d           1.207   2.060   0.002  0.00  0.00     0.091 A 
ATOM      7  C7  <0> d           1.244   3.492   0.009  0.00  0.00     0.103 C 
ATOM      8  N2  <0> d           1.274   4.627   0.014  0.00  0.00    -0.191 NA
ATOM      9 Cl1  <0> d           3.922   2.138  -0.025  0.00  0.00    -0.061 Cl
ATOM     10  H4  <0> d          -0.923  -0.562   0.007  0.00  0.00     0.086 H 
ATOM     11  H5  <0> d           1.233  -1.745  -0.019  0.00  0.00     0.114 H 
ENDROOT
BRANCH   1  12
ATOM     12  C1  <0> d          -1.321   2.135   0.020  0.00  0.00    -0.050 C 
ATOM     13  H1  <0> d          -2.158   1.421   0.025  0.00  0.00     0.033 H 
ATOM     14  H2  <0> d          -1.385   2.768  -0.877  0.00  0.00     0.033 H 
ATOM     15  H3  <0> d          -1.372   2.766   0.919  0.00  0.00     0.033 H 
ENDBRANCH   1  12
TORSDOF 1
