REMARK  2 active torsions:
REMARK  status: ('A' for Active; 'I' for Inactive)
REMARK    1  A    between atoms: C2_2  and  C4_7 
REMARK    2  A    between atoms: C4_7  and  O1_8 
ROOT
ATOM      1  C1  <0> d          -0.016   1.345   0.009  0.00  0.00     0.005 A 
ATOM      2  C2  <0> d           1.267   1.775  -0.001  0.00  0.00     0.001 A 
ATOM      3  C3  <0> d           2.098   0.650  -0.015  0.00  0.00     0.031 A 
ATOM      4  N1  <0> d           1.341  -0.417  -0.013  0.00  0.00    -0.187 NA
ATOM      5  N2  <0> d           0.002  -0.004   0.002  0.00  0.00    -0.289 N 
ATOM      6  H1  <0> d          -0.774  -0.585   0.006  0.00  0.00     0.188 HD
ATOM      7  H2  <0> d          -0.897   1.970   0.025  0.00  0.00     0.114 H 
ATOM      8  H3  <0> d           3.178   0.660  -0.025  0.00  0.00     0.118 H 
ENDROOT
BRANCH   2   9
ATOM      9  C4  <0> d           1.720   3.212   0.002  0.00  0.00     0.043 C 
ATOM     10  H4  <0> d           2.674   3.294  -0.520  0.00  0.00     0.081 H 
ATOM     11  H5  <0> d           0.976   3.829  -0.501  0.00  0.00     0.081 H 
BRANCH   9  12
ATOM     12  O1  <0> d           1.876   3.660   1.351  0.00  0.00    -0.396 OA
ATOM     13  H6  <0> d           2.167   4.579   1.429  0.00  0.00     0.209 HD
ENDBRANCH   9  12
ENDBRANCH   2   9
TORSDOF 2
