REMARK  1 active torsions:
REMARK  status: ('A' for Active; 'I' for Inactive)
REMARK    1  A    between atoms: C5_7  and  O2_9 
ROOT
ATOM      1  C1  <0> d           1.090   3.108   0.476  0.00  0.00    -0.026 C 
ATOM      2  C2  <0> d           1.267   1.666  -0.001  0.00  0.00    -0.003 C 
ATOM      3  N1  <0> d          -0.011   0.966   0.007  0.00  0.00    -0.361 N 
ATOM      4  C3  <0> d          -1.198   1.575   0.017  0.00  0.00     0.220 C 
ATOM      5  O1  <0> d          -2.196   0.887  -0.024  0.00  0.00    -0.274 OA
ATOM      6  C4  <0> d          -1.363   3.066   0.080  0.00  0.00     0.033 C 
ATOM      7  C5  <0> d          -0.053   3.752  -0.317  0.00  0.00     0.045 C 
ATOM      8  H1  <0> d           0.121   3.620  -1.385  0.00  0.00     0.083 H 
ATOM      9  H2  <0> d           0.847   3.114   1.539  0.00  0.00     0.039 H 
ATOM     10  H3  <0> d           2.012   3.665   0.307  0.00  0.00     0.039 H 
ATOM     11  H4  <0> d           1.965   1.151   0.659  0.00  0.00     0.064 H 
ATOM     12  H5  <0> d           1.668   1.672  -1.015  0.00  0.00     0.064 H 
ATOM     13  H6  <0> d           0.002  -0.004   0.002  0.00  0.00     0.162 HD
ATOM     14  H7  <0> d          -1.633   3.361   1.094  0.00  0.00     0.051 H 
ATOM     15  H8  <0> d          -2.153   3.369  -0.608  0.00  0.00     0.051 H 
ENDROOT
BRANCH   7  16
ATOM     16  O2  <0> d          -0.128   5.145  -0.010  0.00  0.00    -0.395 OA
ATOM     17  H9  <0> d          -0.831   5.614  -0.479  0.00  0.00     0.210 HD
ENDBRANCH   7  16
TORSDOF 1
