REMARK  1 active torsions:
REMARK  status: ('A' for Active; 'I' for Inactive)
REMARK    1  A    between atoms: C1_1  and  C2_2 
ROOT
ATOM      1  C2  <0> d           0.002  -0.004   0.002  0.00  0.00    -0.042 C 
ATOM      2  H1  <0> d          -1.020  -0.384   0.010  0.00  0.00     0.042 H 
ATOM      3  C3  <0> d           0.726  -0.502  -1.255  0.00  0.00    -0.053 C 
ATOM      4  C4  <0> d           0.574  -2.023  -1.331  0.00  0.00     0.010 C 
ATOM      5  C5  <0> d           0.925  -2.639  -0.006  0.00  0.00     0.217 C 
ATOM      6  O1  <0> d           1.172  -3.825   0.027  0.00  0.00    -0.274 OA
ATOM      7  N1  <0> d           0.979  -1.950   1.134  0.00  0.00    -0.361 N 
ATOM      8  C6  <0> d           0.748  -0.514   1.236  0.00  0.00    -0.002 C 
ATOM      9  H5  <0> d           0.284  -0.044  -2.139  0.00  0.00     0.034 H 
ATOM     10  H6  <0> d           1.783  -0.242  -1.196  0.00  0.00     0.034 H 
ATOM     11  H7  <0> d          -0.457  -2.271  -1.583  0.00  0.00     0.047 H 
ATOM     12  H8  <0> d           1.238  -2.416  -2.100  0.00  0.00     0.047 H 
ATOM     13  H9  <0> d           1.183  -2.435   1.949  0.00  0.00     0.162 HD
ATOM     14  H10 <0> d           1.707  -0.002   1.314  0.00  0.00     0.064 H 
ATOM     15  H11 <0> d           0.157  -0.303   2.127  0.00  0.00     0.064 H 
ENDROOT
BRANCH   1  16
ATOM     16  C1  <0> d          -0.019   1.526   0.010  0.00  0.00    -0.071 C 
ATOM     17  H2  <0> d           1.004   1.903   0.003  0.00  0.00     0.028 H 
ATOM     18  H3  <0> d          -0.546   1.887  -0.873  0.00  0.00     0.028 H 
ATOM     19  H4  <0> d          -0.529   1.877   0.907  0.00  0.00     0.028 H 
ENDBRANCH   1  16
TORSDOF 1
