REMARK  7 active torsions:
REMARK  status: ('A' for Active; 'I' for Inactive)
REMARK    1  A    between atoms: C1_1  and  O1_2 
REMARK    2  A    between atoms: O1_2  and  C2_3 
REMARK    3  A    between atoms: C2_3  and  C3_5 
REMARK    4  A    between atoms: C3_5  and  C4_6 
REMARK    5  A    between atoms: C4_6  and  C5_8 
REMARK    6  A    between atoms: C4_6  and  O4_10 
REMARK    7  A    between atoms: C5_8  and  O3_9 
ROOT
ATOM      1  C3  <0> d           1.228   3.579   0.010  0.00  0.00     0.041 C 
ATOM      2  H5  <0> d           0.721   3.967  -0.874  0.00  0.00     0.051 H 
ATOM      3  H6  <0> d           0.738   3.957   0.906  0.00  0.00     0.051 H 
ENDROOT
BRANCH   1   4
ATOM      4  C2  <0> d           1.170   2.073   0.002  0.00  0.00     0.260 C 
ATOM      5  O2  <0> d           2.192   1.429  -0.011  0.00  0.00    -0.265 OA
BRANCH   4   6
ATOM      6  O1  <0> d          -0.018   1.448   0.010  0.00  0.00    -0.326 OA
BRANCH   6   7
ATOM      7  C1  <0> d           0.002  -0.004   0.002  0.00  0.00     0.013 C 
ATOM      8  H2  <0> d           0.529  -0.365   0.885  0.00  0.00     0.067 H 
ATOM      9  H3  <0> d          -1.020  -0.381   0.010  0.00  0.00     0.067 H 
ATOM     10  H4  <0> d           0.512  -0.356  -0.895  0.00  0.00     0.067 H 
ENDBRANCH   6   7
ENDBRANCH   4   6
ENDBRANCH   1   4
BRANCH   1  11
ATOM     11  C4  <0> d           2.689   4.033  -0.002  0.00  0.00     0.064 C 
ATOM     12  H1  <0> d           3.219   3.573   0.832  0.00  0.00     0.086 H 
BRANCH  11  13
ATOM     13  C5  <0> d           2.752   5.556   0.131  0.00  0.00     0.041 C 
ATOM     14  H7  <0> d           2.300   6.016  -0.747  0.00  0.00     0.077 H 
ATOM     15  H8  <0> d           2.208   5.865   1.024  0.00  0.00     0.077 H 
BRANCH  13  16
ATOM     16  O3  <0> d           4.115   5.969   0.238  0.00  0.00    -0.398 OA
ATOM     17  H9  <0> d           4.231   6.926   0.325  0.00  0.00     0.209 HD
ENDBRANCH  13  16
ENDBRANCH  11  13
BRANCH  11  18
ATOM     18  O4  <0> d           3.302   3.637  -1.231  0.00  0.00    -0.393 OA
ATOM     19  H10 <0> d           2.881   4.010  -2.018  0.00  0.00     0.210 HD
ENDBRANCH  11  18
ENDBRANCH   1  11
TORSDOF 7
