REMARK  5 active torsions:
REMARK  status: ('A' for Active; 'I' for Inactive)
REMARK    1  A    between atoms: C1_1  and  C2_2 
REMARK    2  A    between atoms: C2_2  and  C3_3 
REMARK    3  A    between atoms: C2_2  and  C4_4 
REMARK    4  A    between atoms: C2_2  and  C5_5 
REMARK    5  A    between atoms: C6_6  and  N3_10 
ROOT
ATOM      1  C2  <0> d           0.002  -0.004   0.002  0.00  0.00    -0.001 C 
ENDROOT
BRANCH   1   2
ATOM      2  C1  <0> d          -0.019   1.526   0.010  0.00  0.00    -0.064 C 
ATOM      3  H1  <0> d          -0.551   1.890  -0.881  0.00  0.00     0.028 H 
ATOM      4  H2  <0> d           1.013   1.907   0.003  0.00  0.00     0.028 H 
ATOM      5  H3  <0> d          -0.534   1.881   0.915  0.00  0.00     0.028 H 
ENDBRANCH   1   2
BRANCH   1   6
ATOM      6  C3  <0> d           0.742  -0.511   1.242  0.00  0.00    -0.064 C 
ATOM      7  H4  <0> d           0.757  -1.611   1.235  0.00  0.00     0.028 H 
ATOM      8  H5  <0> d           0.227  -0.156   2.147  0.00  0.00     0.028 H 
ATOM      9  H6  <0> d           1.774  -0.130   1.234  0.00  0.00     0.028 H 
ENDBRANCH   1   6
BRANCH   1  10
ATOM     10  C4  <0> d          -1.433  -0.534   0.013  0.00  0.00    -0.064 C 
ATOM     11  H7  <0> d          -1.418  -1.633   0.007  0.00  0.00     0.028 H 
ATOM     12  H8  <0> d          -1.965  -0.169  -0.878  0.00  0.00     0.028 H 
ATOM     13  H9  <0> d          -1.948  -0.179   0.918  0.00  0.00     0.028 H 
ENDBRANCH   1  10
BRANCH   1  14
ATOM     14  C5  <0> d           0.707  -0.490  -1.238  0.00  0.00     0.119 A 
ATOM     15  N2  <0> d           0.190  -1.246  -2.158  0.00  0.00    -0.105 NA
ATOM     16  O1  <0> d           1.179  -1.469  -3.147  0.00  0.00    -0.105 OA
ATOM     17  N1  <0> d           2.351  -0.785  -2.739  0.00  0.00    -0.085 NA
ATOM     18  C6  <0> d           2.091  -0.195  -1.604  0.00  0.00     0.178 A 
BRANCH  18  19
ATOM     19  N3  <0> d           2.979   0.582  -0.868  0.00  0.00    -0.380 N 
ATOM     20  H10 <0> d           4.004   0.743  -1.235  0.00  0.00     0.157 HD
ATOM     21  H11 <0> d           2.658   1.036   0.081  0.00  0.00     0.157 HD
ENDBRANCH  18  19
ENDBRANCH   1  14
TORSDOF 5
