REMARK  4 active torsions:
REMARK  status: ('A' for Active; 'I' for Inactive)
REMARK    1  A    between atoms: C1_1  and  C2_2 
REMARK       I    between atoms: C2_2  and  N1_4 
REMARK    2  A    between atoms: N1_4  and  C3_5 
REMARK    3  A    between atoms: N1_4  and  C4_6 
REMARK    4  A    between atoms: C4_6  and  C5_7 
ROOT
ATOM      1  C5  <0> d           2.837   0.951  -1.408  0.00  0.00    -0.098 C 
ATOM      2  C6  <0> d           3.168   0.766  -2.519  0.00  0.00    -0.152 C 
ATOM      3  H9  <0> d           3.464   0.601  -3.513  0.00  0.00     0.166 H 
ENDROOT
BRANCH   1   4
ATOM      4  C4  <0> d           2.422   1.183  -0.015  0.00  0.00     0.051 C 
ATOM      5  H7  <0> d           3.179   1.780   0.495  0.00  0.00     0.083 H 
ATOM      6  H8  <0> d           2.309   0.226   0.495  0.00  0.00     0.083 H 
BRANCH   4   7
ATOM      7  N1  <0> d           1.143   1.898   0.001  0.00  0.00    -0.346 N 
ATOM      8  C2  <0> d          -0.014   1.209   0.009  0.00  0.00     0.216 C 
ATOM      9  O1  <0> d           0.002  -0.004   0.002  0.00  0.00    -0.274 OA
BRANCH   8  10
ATOM     10  C1  <0> d          -1.330   1.944   0.019  0.00  0.00    -0.003 C 
ATOM     11  H1  <0> d          -2.148   1.225   0.019  0.00  0.00     0.040 H 
ATOM     12  H2  <0> d          -1.392   2.565   0.913  0.00  0.00     0.040 H 
ATOM     13  H3  <0> d          -1.400   2.575  -0.867  0.00  0.00     0.040 H 
ENDBRANCH   8  10
BRANCH   7  14
ATOM     14  C3  <0> d           1.124   3.363   0.009  0.00  0.00    -0.015 C 
ATOM     15  H4  <0> d           1.129   3.721   1.039  0.00  0.00     0.056 H 
ATOM     16  H5  <0> d           2.004   3.741  -0.511  0.00  0.00     0.056 H 
ATOM     17  H6  <0> d           0.224   3.717  -0.494  0.00  0.00     0.056 H 
ENDBRANCH   7  14
ENDBRANCH   4   7
ENDBRANCH   1   4
TORSDOF 4
