REMARK  4 active torsions:
REMARK  status: ('A' for Active; 'I' for Inactive)
REMARK    1  A    between atoms: C1_1  and  C2_2 
REMARK    2  A    between atoms: C2_2  and  O2_4 
REMARK    3  A    between atoms: O2_4  and  C3_5 
REMARK    4  A    between atoms: C5_8  and  O3_12 
ROOT
ATOM      1  C3  <0> d           0.597   1.855  -2.175  0.00  0.00     0.067 C 
ATOM      2  H1  <0> d           0.787   0.985  -2.804  0.00  0.00     0.090 H 
ATOM      3  C4  <0> d          -0.652   1.623  -1.294  0.00  0.00    -0.010 C 
ATOM      4  C5  <0> d          -0.013   1.086   0.008  0.00  0.00     0.054 C 
ATOM      5  H2  <0> d           0.002  -0.004   0.002  0.00  0.00     0.089 H 
ATOM      6  C6  <0> d           1.396   1.631  -0.003  0.00  0.00    -0.077 C 
ATOM      7  C7  <0> d           1.729   2.051  -1.193  0.00  0.00    -0.076 C 
ATOM      8  H6  <0> d          -1.313   0.881  -1.740  0.00  0.00     0.041 H 
ATOM      9  H7  <0> d          -1.182   2.558  -1.112  0.00  0.00     0.041 H 
ATOM     10  H8  <0> d           2.043   1.670   0.862  0.00  0.00     0.080 H 
ATOM     11  H9  <0> d           2.687   2.481  -1.443  0.00  0.00     0.080 H 
ENDROOT
BRANCH   1  12
ATOM     12  O2  <0> d           0.426   3.042  -2.993  0.00  0.00    -0.312 OA
BRANCH  12  13
ATOM     13  C2  <0> d           1.102   3.087  -4.151  0.00  0.00     0.255 C 
ATOM     14  O1  <0> d           1.814   2.164  -4.472  0.00  0.00    -0.266 OA
BRANCH  13  15
ATOM     15  C1  <0> d           0.974   4.288  -5.053  0.00  0.00     0.004 C 
ATOM     16  H3  <0> d           1.736   5.022  -4.791  0.00  0.00     0.041 H 
ATOM     17  H4  <0> d           1.108   3.980  -6.090  0.00  0.00     0.041 H 
ATOM     18  H5  <0> d          -0.015   4.730  -4.930  0.00  0.00     0.041 H 
ENDBRANCH  13  15
ENDBRANCH  12  13
ENDBRANCH   1  12
BRANCH   4  19
ATOM     19  O3  <0> d          -0.724   1.567   1.150  0.00  0.00    -0.392 OA
ATOM     20  H10 <0> d          -0.351   1.281   1.995  0.00  0.00     0.210 HD
ENDBRANCH   4  19
TORSDOF 4
