REMARK  5 active torsions:
REMARK  status: ('A' for Active; 'I' for Inactive)
REMARK    1  A    between atoms: C1_1  and  C2_2 
REMARK    2  A    between atoms: C4_4  and  O2_10 
REMARK    3  A    between atoms: C5_6  and  O1_8 
REMARK    4  A    between atoms: O1_8  and  C6_9 
REMARK    5  A    between atoms: O2_10  and  C7_11 
ROOT
ATOM      1  C2  <0> d          -3.893   1.214   2.616  0.00  0.00     0.039 A 
ATOM      2  C3  <0> d          -4.522   0.414   1.681  0.00  0.00    -0.008 A 
ATOM      3  C4  <0> d          -3.800   0.006   0.561  0.00  0.00     0.169 A 
ATOM      4  N1  <0> d          -2.539   0.403   0.428  0.00  0.00    -0.183 NA
ATOM      5  C5  <0> d          -1.971   1.164   1.348  0.00  0.00     0.270 A 
ATOM      6  N2  <0> d          -2.631   1.567   2.421  0.00  0.00    -0.212 NA
ATOM      7  H4  <0> d          -5.550   0.111   1.815  0.00  0.00     0.093 H 
ENDROOT
BRANCH   3   8
ATOM      8  O2  <0> d          -4.377  -0.778  -0.382  0.00  0.00    -0.339 OA
BRANCH   8   9
ATOM      9  C7  <0> d          -3.568  -1.151  -1.499  0.00  0.00     0.012 C 
ATOM     10  H8  <0> d          -4.149  -1.777  -2.176  0.00  0.00     0.067 H 
ATOM     11  H9  <0> d          -3.239  -0.255  -2.025  0.00  0.00     0.067 H 
ATOM     12  H10 <0> d          -2.698  -1.706  -1.148  0.00  0.00     0.067 H 
ENDBRANCH   8   9
ENDBRANCH   3   8
BRANCH   1  13
ATOM     13  C1  <0> d          -4.633   1.678   3.844  0.00  0.00    -0.035 C 
ATOM     14  H1  <0> d          -5.125   2.628   3.634  0.00  0.00     0.035 H 
ATOM     15  H2  <0> d          -5.382   0.935   4.119  0.00  0.00     0.035 H 
ATOM     16  H3  <0> d          -3.929   1.807   4.666  0.00  0.00     0.035 H 
ENDBRANCH   1  13
BRANCH   5  17
ATOM     17  O1  <0> d          -0.682   1.547   1.184  0.00  0.00    -0.324 OA
BRANCH  17  18
ATOM     18  C6  <0> d          -0.013   1.086   0.008  0.00  0.00     0.013 C 
ATOM     19  H5  <0> d           0.002  -0.004   0.002  0.00  0.00     0.067 H 
ATOM     20  H6  <0> d           1.010   1.463   0.000  0.00  0.00     0.067 H 
ATOM     21  H7  <0> d          -0.540   1.447  -0.875  0.00  0.00     0.067 H 
ENDBRANCH  17  18
ENDBRANCH   5  17
TORSDOF 5
