REMARK  1 active torsions:
REMARK  status: ('A' for Active; 'I' for Inactive)
REMARK    1  A    between atoms: C4_4  and  N1_8 
ROOT
ATOM      1  C1  <0> d           0.002  -0.004   0.002  0.00  0.00    -0.079 A 
ATOM      2  C2  <0> d           1.200  -0.684  -0.013  0.00  0.00    -0.060 A 
ATOM      3  C3  <0> d           2.405   0.024  -0.020  0.00  0.00     0.073 A 
ATOM      4  C4  <0> d           2.384   1.427  -0.013  0.00  0.00     0.085 A 
ATOM      5  C5  <0> d           1.166   2.097   0.002  0.00  0.00     0.144 A 
ATOM      6  C6  <0> d          -0.017   1.381   0.010  0.00  0.00    -0.043 A 
ATOM      7  F1  <0> d           1.138   3.447   0.009  0.00  0.00    -0.204 F 
ATOM      8  C7  <0> d           3.653  -0.678  -0.035  0.00  0.00     0.102 C 
ATOM      9  N2  <0> d           4.643  -1.234  -0.047  0.00  0.00    -0.191 NA
ATOM     10  H1  <0> d          -0.927  -0.554   0.008  0.00  0.00     0.083 H 
ATOM     11  H2  <0> d           1.209  -1.764  -0.018  0.00  0.00     0.086 H 
ATOM     12  H3  <0> d          -0.961   1.905   0.017  0.00  0.00     0.088 H 
ENDROOT
BRANCH   4  13
ATOM     13  N1  <0> d           3.577   2.145  -0.020  0.00  0.00    -0.395 N 
ATOM     14  H4  <0> d           4.425   1.675  -0.030  0.00  0.00     0.156 HD
ATOM     15  H5  <0> d           3.559   3.114  -0.015  0.00  0.00     0.156 HD
ENDBRANCH   4  13
TORSDOF 1
