REMARK  1 active torsions:
REMARK  status: ('A' for Active; 'I' for Inactive)
REMARK    1  A    between atoms: C7_8  and  O2_10 
ROOT
ATOM      1  C1  <0> d           1.169   1.784   0.001  0.00  0.00    -0.079 A 
ATOM      2  C2  <0> d          -0.013   1.076   0.008  0.00  0.00    -0.070 A 
ATOM      3  C3  <0> d          -1.228   1.760   0.017  0.00  0.00     0.002 A 
ATOM      4  C4  <0> d          -2.637   1.347   0.022  0.00  0.00    -0.049 A 
ATOM      5  C5  <0> d          -3.357   2.477   0.031  0.00  0.00     0.020 A 
ATOM      6  O1  <0> d          -2.542   3.546   0.044  0.00  0.00    -0.319 OA
ATOM      7  C6  <0> d          -1.248   3.163   0.030  0.00  0.00     0.118 A 
ATOM      8  C7  <0> d          -0.043   3.862   0.023  0.00  0.00     0.100 A 
ATOM      9  C8  <0> d           1.154   3.171   0.008  0.00  0.00    -0.048 A 
ATOM     10  H1  <0> d           2.111   1.256  -0.011  0.00  0.00     0.083 H 
ATOM     11  H2  <0> d           0.002  -0.004   0.002  0.00  0.00     0.084 H 
ATOM     12  H3  <0> d          -3.017   0.336   0.019  0.00  0.00     0.087 H 
ATOM     13  H4  <0> d          -4.436   2.523   0.036  0.00  0.00     0.123 H 
ATOM     14  H5  <0> d           2.087   3.715   0.002  0.00  0.00     0.087 H 
ENDROOT
BRANCH   8  15
ATOM     15  O2  <0> d          -0.044   5.222   0.030  0.00  0.00    -0.358 OA
ATOM     16  H6  <0> d          -0.053   5.620  -0.852  0.00  0.00     0.217 HD
ENDBRANCH   8  15
TORSDOF 1
