REMARK  4 active torsions:
REMARK  status: ('A' for Active; 'I' for Inactive)
REMARK    1  A    between atoms: C1_1  and  N1_2 
REMARK    2  A    between atoms: C4_6  and  C5_7 
REMARK    3  A    between atoms: C5_7  and  O2_9 
REMARK    4  A    between atoms: O2_9  and  C6_10 
ROOT
ATOM      1  N1  <0> d          -0.017   1.363   0.009  0.00  0.00    -0.340 N 
ATOM      2  C2  <0> d           1.272   1.779  -0.001  0.00  0.00    -0.002 A 
ATOM      3  C3  <0> d           2.051   0.669  -0.014  0.00  0.00     0.020 A 
ATOM      4  N2  <0> d           1.258  -0.400  -0.012  0.00  0.00    -0.236 NA
ATOM      5  C4  <0> d           0.002  -0.004   0.002  0.00  0.00     0.205 A 
ATOM      6  H4  <0> d           1.615   2.803   0.001  0.00  0.00     0.113 H 
ATOM      7  H5  <0> d           3.131   0.655  -0.025  0.00  0.00     0.117 H 
ENDROOT
BRANCH   5   8
ATOM      8  C5  <0> d          -1.179  -0.883   0.008  0.00  0.00     0.329 C 
ATOM      9  O1  <0> d          -2.295  -0.401   0.021  0.00  0.00    -0.256 OA
BRANCH   8  10
ATOM     10  O2  <0> d          -1.023  -2.222  -0.001  0.00  0.00    -0.320 OA
BRANCH  10  11
ATOM     11  C6  <0> d          -2.232  -3.027   0.006  0.00  0.00     0.013 C 
ATOM     12  H6  <0> d          -1.965  -4.083  -0.002  0.00  0.00     0.067 H 
ATOM     13  H7  <0> d          -2.811  -2.805   0.903  0.00  0.00     0.067 H 
ATOM     14  H8  <0> d          -2.827  -2.795  -0.877  0.00  0.00     0.067 H 
ENDBRANCH  10  11
ENDBRANCH   8  10
ENDBRANCH   5   8
BRANCH   1  15
ATOM     15  C1  <0> d          -1.207   2.217   0.020  0.00  0.00    -0.013 C 
ATOM     16  H1  <0> d          -1.497   2.423   1.050  0.00  0.00     0.057 H 
ATOM     17  H2  <0> d          -0.986   3.155  -0.490  0.00  0.00     0.057 H 
ATOM     18  H3  <0> d          -2.023   1.708  -0.492  0.00  0.00     0.057 H 
ENDBRANCH   1  15
TORSDOF 4
