REMARK  5 active torsions:
REMARK  status: ('A' for Active; 'I' for Inactive)
REMARK    1  A    between atoms: C1_1  and  C2_2 
REMARK    2  A    between atoms: C2_2  and  C3_3 
REMARK    3  A    between atoms: C2_2  and  C5_6 
REMARK    4  A    between atoms: C3_3  and  C4_4 
REMARK    5  A    between atoms: C5_6  and  C6_7 
ROOT
ATOM      1  C2  <0> d          -0.013   1.086   0.008  0.00  0.00    -0.039 C 
ATOM      2  H4  <0> d           0.002  -0.004   0.002  0.00  0.00     0.041 H 
ENDROOT
BRANCH   1   3
ATOM      3  C1  <0> d          -0.729   1.579   1.267  0.00  0.00    -0.072 C 
ATOM      4  H1  <0> d          -0.202   1.218   2.150  0.00  0.00     0.028 H 
ATOM      5  H2  <0> d          -0.744   2.669   1.273  0.00  0.00     0.028 H 
ATOM      6  H3  <0> d          -1.751   1.202   1.275  0.00  0.00     0.028 H 
ENDBRANCH   1   3
BRANCH   1   7
ATOM      7  C3  <0> d           1.423   1.615  -0.003  0.00  0.00     0.019 C 
ATOM      8  H5  <0> d           1.905   1.339  -0.940  0.00  0.00     0.049 H 
ATOM      9  H6  <0> d           1.410   2.701   0.093  0.00  0.00     0.049 H 
BRANCH   7  10
ATOM     10  C4  <0> d           2.187   1.018   1.151  0.00  0.00     0.172 C 
ATOM     11  O1  <0> d           1.640   0.248   1.904  0.00  0.00    -0.648 OA
ATOM     12  O3  <0> d           3.476   1.342   1.341  0.00  0.00    -0.648 OA
ENDBRANCH   7  10
ENDBRANCH   1   7
BRANCH   1  13
ATOM     13  C5  <0> d          -0.753   1.593  -1.232  0.00  0.00     0.019 C 
ATOM     14  H7  <0> d          -0.845   2.678  -1.181  0.00  0.00     0.049 H 
ATOM     15  H8  <0> d          -0.194   1.317  -2.126  0.00  0.00     0.049 H 
BRANCH  13  16
ATOM     16  C6  <0> d          -2.126   0.973  -1.285  0.00  0.00     0.172 C 
ATOM     17  O2  <0> d          -2.476   0.205  -0.421  0.00  0.00    -0.648 OA
ATOM     18  O4  <0> d          -2.959   1.275  -2.293  0.00  0.00    -0.648 OA
ENDBRANCH  13  16
ENDBRANCH   1  13
TORSDOF 5
