REMARK  5 active torsions:
REMARK  status: ('A' for Active; 'I' for Inactive)
REMARK    1  A    between atoms: C1_1  and  C2_2 
REMARK    2  A    between atoms: C2_2  and  C3_3 
REMARK    3  A    between atoms: C3_3  and  C4_4 
REMARK    4  A    between atoms: C3_3  and  C6_6 
REMARK    5  A    between atoms: C4_4  and  C5_5 
REMARK       I    between atoms: C6_6  and  N1_8 
ROOT
ATOM      1  C3  <0> d           1.328   1.965  -0.124  0.00  0.00     0.023 C 
ATOM      2  H6  <0> d           1.543   2.539  -1.026  0.00  0.00     0.054 H 
ENDROOT
BRANCH   1   3
ATOM      3  C2  <0> d           1.412   2.883   1.097  0.00  0.00    -0.057 C 
ATOM      4  H4  <0> d           2.408   3.321   1.154  0.00  0.00     0.033 H 
ATOM      5  H5  <0> d           0.670   3.676   1.007  0.00  0.00     0.033 H 
BRANCH   3   6
ATOM      6  C1  <0> d           1.139   2.071   2.365  0.00  0.00    -0.076 C 
ATOM      7  H1  <0> d           0.188   1.548   2.264  0.00  0.00     0.027 H 
ATOM      8  H2  <0> d           1.939   1.345   2.510  0.00  0.00     0.027 H 
ATOM      9  H3  <0> d           1.096   2.741   3.223  0.00  0.00     0.027 H 
ENDBRANCH   3   6
ENDBRANCH   1   3
BRANCH   1  10
ATOM     10  C4  <0> d           2.348   0.834   0.016  0.00  0.00    -0.057 C 
ATOM     11  H7  <0> d           2.191   0.318   0.963  0.00  0.00     0.033 H 
ATOM     12  H8  <0> d           2.225   0.129  -0.806  0.00  0.00     0.033 H 
BRANCH  10  13
ATOM     13  C5  <0> d           3.763   1.416  -0.019  0.00  0.00    -0.076 C 
ATOM     14  H9  <0> d           3.916   1.943  -0.961  0.00  0.00     0.027 H 
ATOM     15  H10 <0> d           3.890   2.112   0.810  0.00  0.00     0.027 H 
ATOM     16  H11 <0> d           4.490   0.609   0.069  0.00  0.00     0.027 H 
ENDBRANCH  10  13
ENDBRANCH   1  10
BRANCH   1  17
ATOM     17  C6  <0> d          -0.059   1.382  -0.220  0.00  0.00     0.219 C 
ATOM     18  O1  <0> d          -0.215   0.180  -0.179  0.00  0.00    -0.273 OA
ATOM     19  N1  <0> d          -1.124   2.196  -0.355  0.00  0.00    -0.370 N 
ATOM     20  H12 <0> d          -2.016   1.820  -0.420  0.00  0.00     0.159 HD
ATOM     21  H13 <0> d          -0.999   3.157  -0.388  0.00  0.00     0.159 HD
ENDBRANCH   1  17
TORSDOF 5
