REMARK  4 active torsions:
REMARK  status: ('A' for Active; 'I' for Inactive)
REMARK    1  A    between atoms: C1_1  and  C2_2 
REMARK    2  A    between atoms: C2_2  and  S1_3 
REMARK    3  A    between atoms: S1_3  and  C3_4 
REMARK    4  A    between atoms: C5_6  and  N3_10 
ROOT
ATOM      1  C3  <0> d           1.708   2.135  -0.003  0.00  0.00     0.098 A 
ATOM      2  C4  <0> d           2.178   3.446  -0.000  0.00  0.00    -0.005 A 
ATOM      3  C5  <0> d           3.554   3.653  -0.012  0.00  0.00     0.125 A 
ATOM      4  N1  <0> d           4.366   2.597  -0.025  0.00  0.00    -0.225 NA
ATOM      5  C6  <0> d           3.883   1.372  -0.027  0.00  0.00     0.090 A 
ATOM      6  N2  <0> d           2.587   1.134  -0.011  0.00  0.00    -0.235 NA
ATOM      7  H6  <0> d           1.492   4.280   0.010  0.00  0.00     0.093 H 
ATOM      8  H7  <0> d           4.569   0.538  -0.037  0.00  0.00     0.146 H 
ENDROOT
BRANCH   1   9
ATOM      9  S1  <0> d          -0.022   1.806   0.012  0.00  0.00    -0.111 SA
BRANCH   9  10
ATOM     10  C2  <0> d           0.002  -0.004   0.002  0.00  0.00    -0.021 C 
ATOM     11  H4  <0> d           0.512  -0.356  -0.895  0.00  0.00     0.049 H 
ATOM     12  H5  <0> d           0.529  -0.365   0.885  0.00  0.00     0.049 H 
BRANCH  10  13
ATOM     13  C1  <0> d          -1.433  -0.534   0.013  0.00  0.00    -0.068 C 
ATOM     14  H1  <0> d          -1.944  -0.182   0.910  0.00  0.00     0.028 H 
ATOM     15  H2  <0> d          -1.960  -0.173  -0.870  0.00  0.00     0.028 H 
ATOM     16  H3  <0> d          -1.419  -1.623   0.007  0.00  0.00     0.028 H 
ENDBRANCH  10  13
ENDBRANCH   9  10
ENDBRANCH   1   9
BRANCH   3  17
ATOM     17  N3  <0> d           4.071   4.939  -0.009  0.00  0.00    -0.384 N 
ATOM     18  H8  <0> d           3.473   5.703   0.001  0.00  0.00     0.157 HD
ATOM     19  H9  <0> d           5.032   5.075  -0.017  0.00  0.00     0.157 HD
ENDBRANCH   3  17
TORSDOF 4
