REMARK  5 active torsions:
REMARK  status: ('A' for Active; 'I' for Inactive)
REMARK    1  A    between atoms: C1_1  and  C2_2 
REMARK    2  A    between atoms: C2_2  and  C3_3 
REMARK    3  A    between atoms: C2_2  and  C4_5 
REMARK    4  A    between atoms: C3_3  and  O1_4 
REMARK    5  A    between atoms: C4_5  and  O2_6 
ROOT
ATOM      1  C2  <0> d          -0.013   1.086   0.008  0.00  0.00    -0.017 C 
ATOM      2  H4  <0> d           0.002  -0.004   0.002  0.00  0.00     0.045 H 
ENDROOT
BRANCH   1   3
ATOM      3  C1  <0> d          -0.729   1.579   1.267  0.00  0.00    -0.069 C 
ATOM      4  H1  <0> d          -0.744   2.669   1.273  0.00  0.00     0.028 H 
ATOM      5  H2  <0> d          -1.751   1.202   1.275  0.00  0.00     0.028 H 
ATOM      6  H3  <0> d          -0.202   1.218   2.150  0.00  0.00     0.028 H 
ENDBRANCH   1   3
BRANCH   1   7
ATOM      7  C3  <0> d           1.423   1.615  -0.003  0.00  0.00     0.022 C 
ATOM      8  H5  <0> d           1.905   1.339  -0.940  0.00  0.00     0.074 H 
ATOM      9  H6  <0> d           1.410   2.701   0.093  0.00  0.00     0.074 H 
BRANCH   7  10
ATOM     10  O1  <0> d           2.147   1.049   1.091  0.00  0.00    -0.400 OA
ATOM     11  H7  <0> d           3.068   1.342   1.146  0.00  0.00     0.209 HD
ENDBRANCH   7  10
ENDBRANCH   1   7
BRANCH   1  12
ATOM     12  C4  <0> d          -0.753   1.593  -1.232  0.00  0.00     0.022 C 
ATOM     13  H8  <0> d          -0.845   2.678  -1.181  0.00  0.00     0.074 H 
ATOM     14  H9  <0> d          -0.194   1.317  -2.126  0.00  0.00     0.074 H 
BRANCH  12  15
ATOM     15  O2  <0> d          -2.054   1.005  -1.282  0.00  0.00    -0.400 OA
ATOM     16  H10 <0> d          -2.581   1.282  -2.044  0.00  0.00     0.209 HD
ENDBRANCH  12  15
ENDBRANCH   1  12
TORSDOF 5
