REMARK  1 active torsions:
REMARK  status: ('A' for Active; 'I' for Inactive)
REMARK    1  A    between atoms: C1_1  and  C2_2 
ROOT
ATOM      1  C2  <0> d           0.002  -0.004   0.002  0.00  0.00     0.039 A 
ATOM      2  C3  <0> d           0.005  -0.679  -1.177  0.00  0.00    -0.019 A 
ATOM      3  S1  <0> d           0.030  -2.286  -0.675  0.00  0.00    -0.069 SA
ATOM      4  C4  <0> d           0.035  -1.994   1.085  0.00  0.00     0.177 A 
ATOM      5  N1  <0> d           0.022  -0.667   1.131  0.00  0.00    -0.235 NA
ATOM      6  C5  <0> d           0.054  -2.939   2.162  0.00  0.00     0.127 C 
ATOM      7  N2  <0> d           0.069  -3.688   3.015  0.00  0.00    -0.189 NA
ATOM      8  H4  <0> d          -0.005  -0.284  -2.182  0.00  0.00     0.098 H 
ENDROOT
BRANCH   1   9
ATOM      9  C1  <0> d          -0.018   1.503   0.010  0.00  0.00    -0.035 C 
ATOM     10  H1  <0> d           1.004   1.880   0.003  0.00  0.00     0.035 H 
ATOM     11  H2  <0> d          -0.545   1.864  -0.873  0.00  0.00     0.035 H 
ATOM     12  H3  <0> d          -0.529   1.854   0.907  0.00  0.00     0.035 H 
ENDBRANCH   1   9
TORSDOF 1
