REMARK  4 active torsions:
REMARK  status: ('A' for Active; 'I' for Inactive)
REMARK    1  A    between atoms: C1_1  and  C2_2 
REMARK    2  A    between atoms: C2_2  and  C3_3 
REMARK    3  A    between atoms: C2_2  and  C4_4 
REMARK    4  A    between atoms: C2_2  and  C5_5 
ROOT
ATOM      1  C5  <0> d          -0.761   1.597  -1.227  0.00  0.00    -0.042 C 
ATOM      2  H1  <0> d          -1.751   1.142  -1.267  0.00  0.00     0.041 H 
ATOM      3  C6  <0> d          -0.902   3.118  -1.143  0.00  0.00    -0.060 C 
ATOM      4  C7  <0> d          -1.760   3.493   0.067  0.00  0.00    -0.059 C 
ATOM      5  C8  <0> d          -1.049   3.053   1.351  0.00  0.00    -0.010 C 
ATOM      6  C9  <0> d          -0.728   1.577   1.247  0.00  0.00     0.127 C 
ATOM      7  O1  <0> d          -1.040   0.812   2.127  0.00  0.00    -0.298 OA
ATOM      8  C10 <0> d          -0.013   1.086   0.008  0.00  0.00    -0.006 C 
ATOM      9  H11 <0> d           0.085   3.568  -1.040  0.00  0.00     0.033 H 
ATOM     10  H12 <0> d          -1.377   3.489  -2.051  0.00  0.00     0.033 H 
ATOM     11  H13 <0> d          -1.909   4.572   0.086  0.00  0.00     0.033 H 
ATOM     12  H14 <0> d          -2.726   2.993  -0.003  0.00  0.00     0.033 H 
ATOM     13  H15 <0> d          -0.205   3.578   1.462  0.00  0.00     0.044 H 
ATOM     14  H16 <0> d          -1.699   3.227   2.208  0.00  0.00     0.044 H 
ATOM     15  H17 <0> d           0.004   0.086  -0.002  0.00  0.00     0.044 H 
ATOM     16  H18 <0> d           1.009   1.466   0.000  0.00  0.00     0.044 H 
ENDROOT
BRANCH   1  17
ATOM     17  C2  <0> d           0.022   1.226  -2.488  0.00  0.00    -0.047 C 
BRANCH  17  18
ATOM     18  C1  <0> d           0.164  -0.295  -2.572  0.00  0.00    -0.069 C 
ATOM     19  H2  <0> d          -0.825  -0.750  -2.611  0.00  0.00     0.028 H 
ATOM     20  H3  <0> d           0.722  -0.559  -3.470  0.00  0.00     0.028 H 
ATOM     21  H4  <0> d           0.697  -0.658  -1.693  0.00  0.00     0.028 H 
ENDBRANCH  17  18
BRANCH  17  22
ATOM     22  C3  <0> d          -0.726   1.737  -3.722  0.00  0.00    -0.069 C 
ATOM     23  H5  <0> d          -0.827   2.821  -3.662  0.00  0.00     0.028 H 
ATOM     24  H6  <0> d          -0.168   1.473  -4.620  0.00  0.00     0.028 H 
ATOM     25  H7  <0> d          -1.715   1.282  -3.761  0.00  0.00     0.028 H 
ENDBRANCH  17  22
BRANCH  17  26
ATOM     26  C4  <0> d           1.411   1.866  -2.433  0.00  0.00    -0.069 C 
ATOM     27  H8  <0> d           1.943   1.502  -1.554  0.00  0.00     0.028 H 
ATOM     28  H9  <0> d           1.968   1.602  -3.331  0.00  0.00     0.028 H 
ATOM     29  H10 <0> d           1.309   2.950  -2.373  0.00  0.00     0.028 H 
ENDBRANCH  17  26
ENDBRANCH   1  17
TORSDOF 4
