REMARK  1 active torsions:
REMARK  status: ('A' for Active; 'I' for Inactive)
REMARK    1  A    between atoms: C8_10  and  O1_11 
ROOT
ATOM      1  C1  <0> d           3.131   3.750   1.778  0.00  0.00    -0.058 C 
ATOM      2  C2  <0> d           1.872   3.467   2.696  0.00  0.00    -0.053 C 
ATOM      3  C3  <0> d           2.058   1.876   2.776  0.00  0.00    -0.056 C 
ATOM      4  C4  <0> d           1.910   1.694   1.319  0.00  0.00    -0.025 C 
ATOM      5  H1  <0> d           0.900   1.905   1.488  0.00  0.00     0.044 H 
ATOM      6  C5  <0> d           2.815   2.744   0.607  0.00  0.00    -0.042 C 
ATOM      7  C6  <0> d           1.333   3.112   0.238  0.00  0.00    -0.025 C 
ATOM      8  H2  <0> d           1.169   3.755  -0.638  0.00  0.00     0.044 H 
ATOM      9  C7  <0> d           0.777   3.656   1.570  0.00  0.00    -0.056 C 
ATOM     10  C8  <0> d           1.287   1.562  -0.002  0.00  0.00     0.043 C 
ATOM     11  H3  <0> d           4.058   3.493   2.288  0.00  0.00     0.034 H 
ATOM     12  H4  <0> d           3.140   4.781   1.428  0.00  0.00     0.034 H 
ATOM     13  H5  <0> d           1.767   4.034   3.626  0.00  0.00     0.040 H 
ATOM     14  H6  <0> d           3.048   1.579   3.129  0.00  0.00     0.034 H 
ATOM     15  H7  <0> d           1.263   1.381   3.337  0.00  0.00     0.034 H 
ATOM     16  H8  <0> d           3.589   2.509  -0.142  0.00  0.00     0.041 H 
ATOM     17  H9  <0> d           0.568   4.728   1.459  0.00  0.00     0.034 H 
ATOM     18  H10 <0> d          -0.148   3.159   1.848  0.00  0.00     0.034 H 
ATOM     19  H11 <0> d           1.951   1.176  -0.777  0.00  0.00     0.084 H 
ENDROOT
BRANCH  10  20
ATOM     20  O1  <0> d          -0.011   0.963   0.007  0.00  0.00    -0.395 OA
ATOM     21  H12 <0> d           0.002  -0.004   0.002  0.00  0.00     0.210 HD
ENDBRANCH  10  20
TORSDOF 1
