REMARK  3 active torsions:
REMARK  status: ('A' for Active; 'I' for Inactive)
REMARK    1  A    between atoms: C2_2  and  C3_3 
REMARK    2  A    between atoms: C4_4  and  C5_5 
REMARK    3  A    between atoms: C5_5  and  N1_6 
ROOT
ATOM      1  N1  <0> d           2.148   1.397   1.151  0.00  0.00     0.103 N 
ATOM      2  C6  <0> d           1.421   1.950  -0.001  0.00  0.00     0.134 C 
ATOM      3  C7  <0> d          -0.017   1.426   0.010  0.00  0.00     0.044 C 
ATOM      4  O1  <0> d           0.002  -0.004   0.002  0.00  0.00    -0.388 OA
ATOM      5  C8  <0> d           0.701  -0.577   1.111  0.00  0.00     0.044 C 
ATOM      6  C9  <0> d           2.147  -0.072   1.111  0.00  0.00     0.134 C 
ATOM      7  H6  <0> d           1.413   3.049   0.063  0.00  0.00     0.083 H 
ATOM      8  H7  <0> d           1.919   1.641  -0.932  0.00  0.00     0.083 H 
ATOM      9  H8  <0> d          -0.531   1.783   0.915  0.00  0.00     0.077 H 
ATOM     10  H9  <0> d          -0.548   1.792  -0.881  0.00  0.00     0.077 H 
ATOM     11  H10 <0> d           0.207  -0.280   2.048  0.00  0.00     0.077 H 
ATOM     12  H11 <0> d           0.693  -1.673   1.022  0.00  0.00     0.077 H 
ATOM     13  H12 <0> d           2.656  -0.414   0.198  0.00  0.00     0.083 H 
ATOM     14  H13 <0> d           2.674  -0.464   1.994  0.00  0.00     0.083 H 
ENDROOT
BRANCH   1  15
ATOM     15  C5  <0> d           3.519   1.922   1.210  0.00  0.00     0.168 C 
ATOM     16  H4  <0> d           4.125   1.452   0.421  0.00  0.00     0.099 H 
ATOM     17  H5  <0> d           3.956   1.695   2.193  0.00  0.00     0.099 H 
BRANCH  15  18
ATOM     18  C4  <0> d           3.495   3.380   1.008  0.00  0.00    -0.072 C 
ATOM     19  C3  <0> d           3.477   4.542   0.847  0.00  0.00    -0.078 C 
BRANCH  19  20
ATOM     20  C2  <0> d           3.455   5.961   0.650  0.00  0.00    -0.042 C 
ATOM     21  C1  <0> d           2.299   6.586   0.454  0.00  0.00    -0.114 C 
ATOM     22  H1  <0> d           2.281   7.675   0.303  0.00  0.00     0.067 H 
ATOM     23  H2  <0> d           1.359   6.014   0.443  0.00  0.00     0.067 H 
ATOM     24  H3  <0> d           4.394   6.532   0.661  0.00  0.00     0.096 H 
ENDBRANCH  19  20
ENDBRANCH  15  18
ENDBRANCH   1  15
TORSDOF 3
