REMARK  9 active torsions:
REMARK  status: ('A' for Active; 'I' for Inactive)
REMARK    1  A    between atoms: C1_1  and  C2_2 
REMARK    2  A    between atoms: C2_2  and  C3_3 
REMARK    3  A    between atoms: C2_2  and  C4_4 
REMARK    4  A    between atoms: C2_2  and  C5_5 
REMARK    5  A    between atoms: C5_5  and  O2_7 
REMARK    6  A    between atoms: O2_7  and  C6_8 
REMARK    7  A    between atoms: C6_8  and  C7_9 
REMARK    8  A    between atoms: C6_8  and  C8_10 
REMARK    9  A    between atoms: C6_8  and  C9_11 
ROOT
ATOM      1  C5  <0> d           0.002  -0.004   0.002  0.00  0.00     0.267 C 
ATOM      2  O1  <0> d           1.056  -0.594  -0.011  0.00  0.00    -0.264 OA
ENDROOT
BRANCH   1   3
ATOM      3  C2  <0> d          -1.293  -0.775   0.010  0.00  0.00     0.037 C 
BRANCH   3   4
ATOM      4  C1  <0> d          -0.993  -2.276  -0.001  0.00  0.00    -0.061 C 
ATOM      5  H1  <0> d          -0.409  -2.536   0.882  0.00  0.00     0.029 H 
ATOM      6  H2  <0> d          -1.929  -2.833   0.005  0.00  0.00     0.029 H 
ATOM      7  H3  <0> d          -0.426  -2.526  -0.897  0.00  0.00     0.029 H 
ENDBRANCH   3   4
BRANCH   3   8
ATOM      8  C3  <0> d          -2.088  -0.423   1.269  0.00  0.00    -0.061 C 
ATOM      9  H4  <0> d          -2.302   0.645   1.277  0.00  0.00     0.029 H 
ATOM     10  H5  <0> d          -3.024  -0.981   1.275  0.00  0.00     0.029 H 
ATOM     11  H6  <0> d          -1.504  -0.684   2.152  0.00  0.00     0.029 H 
ENDBRANCH   3   8
BRANCH   3  12
ATOM     12  C4  <0> d          -2.112  -0.410  -1.229  0.00  0.00    -0.061 C 
ATOM     13  H7  <0> d          -1.545  -0.661  -2.126  0.00  0.00     0.029 H 
ATOM     14  H8  <0> d          -3.048  -0.968  -1.223  0.00  0.00     0.029 H 
ATOM     15  H9  <0> d          -2.325   0.659  -1.222  0.00  0.00     0.029 H 
ENDBRANCH   3  12
ENDBRANCH   1   3
BRANCH   1  16
ATOM     16  O2  <0> d          -0.016   1.338   0.009  0.00  0.00    -0.311 OA
BRANCH  16  17
ATOM     17  C6  <0> d           1.268   2.015   0.001  0.00  0.00     0.060 C 
BRANCH  17  18
ATOM     18  C7  <0> d           2.044   1.621  -1.258  0.00  0.00    -0.048 C 
ATOM     19  H10 <0> d           1.474   1.911  -2.141  0.00  0.00     0.031 H 
ATOM     20  H11 <0> d           3.008   2.129  -1.264  0.00  0.00     0.031 H 
ATOM     21  H12 <0> d           2.201   0.543  -1.265  0.00  0.00     0.031 H 
ENDBRANCH  17  18
BRANCH  17  22
ATOM     22  C8  <0> d           1.048   3.529   0.011  0.00  0.00    -0.048 C 
ATOM     23  H13 <0> d           0.495   3.809   0.908  0.00  0.00     0.031 H 
ATOM     24  H14 <0> d           2.012   4.037   0.004  0.00  0.00     0.031 H 
ATOM     25  H15 <0> d           0.478   3.819  -0.872  0.00  0.00     0.031 H 
ENDBRANCH  17  22
BRANCH  17  26
ATOM     26  C9  <0> d           2.068   1.608   1.240  0.00  0.00    -0.048 C 
ATOM     27  H16 <0> d           2.225   0.529   1.233  0.00  0.00     0.031 H 
ATOM     28  H17 <0> d           3.032   2.116   1.234  0.00  0.00     0.031 H 
ATOM     29  H18 <0> d           1.515   1.888   2.137  0.00  0.00     0.031 H 
ENDBRANCH  17  26
ENDBRANCH  16  17
ENDBRANCH   1  16
TORSDOF 9
