REMARK  3 active torsions:
REMARK  status: ('A' for Active; 'I' for Inactive)
REMARK    1  A    between atoms: C1_1  and  C2_2 
REMARK    2  A    between atoms: C2_2  and  C3_3 
REMARK    3  A    between atoms: C5_7  and  C6_10 
ROOT
ATOM      1  C3  <0> d           1.351   1.876  -0.001  0.00  0.00     0.131 C 
ATOM      2  H1  <0> d           1.675   2.066  -1.024  0.00  0.00     0.129 H 
ATOM      3  O1  <0> d           2.125   0.801   0.574  0.00  0.00    -0.359 OA
ATOM      4  C4  <0> d           1.498  -0.386   0.030  0.00  0.00     0.046 C 
ATOM      5  C5  <0> d           0.002  -0.004   0.002  0.00  0.00     0.058 C 
ATOM      6  H2  <0> d          -0.469  -0.384  -0.905  0.00  0.00     0.086 H 
ATOM      7  O2  <0> d          -0.017   1.435   0.010  0.00  0.00    -0.354 OA
ATOM      8  H8  <0> d           1.666  -1.243   0.682  0.00  0.00     0.078 H 
ATOM      9  H9  <0> d           1.863  -0.591  -0.976  0.00  0.00     0.078 H 
ENDROOT
BRANCH   1  10
ATOM     10  C2  <0> d           1.502   3.143   0.844  0.00  0.00    -0.022 C 
ATOM     11  H6  <0> d           0.804   3.901   0.489  0.00  0.00     0.039 H 
ATOM     12  H7  <0> d           1.287   2.912   1.887  0.00  0.00     0.039 H 
BRANCH  10  13
ATOM     13  C1  <0> d           2.933   3.670   0.722  0.00  0.00    -0.072 C 
ATOM     14  H3  <0> d           3.040   4.573   1.324  0.00  0.00     0.027 H 
ATOM     15  H4  <0> d           3.631   2.912   1.077  0.00  0.00     0.027 H 
ATOM     16  H5  <0> d           3.147   3.901  -0.321  0.00  0.00     0.027 H 
ENDBRANCH  10  13
ENDBRANCH   1  10
BRANCH   5  17
ATOM     17  C6  <0> d          -0.712  -0.552   1.240  0.00  0.00    -0.050 C 
ATOM     18  H10 <0> d          -1.753  -0.232   1.230  0.00  0.00     0.031 H 
ATOM     19  H11 <0> d          -0.666  -1.641   1.233  0.00  0.00     0.031 H 
ATOM     20  H12 <0> d          -0.224  -0.173   2.138  0.00  0.00     0.031 H 
ENDBRANCH   5  17
TORSDOF 3
