REMARK  2 active torsions:
REMARK  status: ('A' for Active; 'I' for Inactive)
REMARK    1  A    between atoms: C6_7  and  C7_8 
REMARK    2  A    between atoms: C7_8  and  O1_9 
ROOT
ATOM      1  C1  <0> d          -0.018   1.499   0.010  0.00  0.00    -0.011 C 
ATOM      2  C2  <0> d           1.397   2.013  -0.001  0.00  0.00    -0.098 C 
ATOM      3  C3  <0> d           2.227   1.724   0.993  0.00  0.00    -0.085 C 
ATOM      4  C4  <0> d           1.816   0.927   2.137  0.00  0.00    -0.066 C 
ATOM      5  C5  <0> d           1.030  -0.143   2.079  0.00  0.00     0.002 C 
ATOM      6  N1  <0> d           0.505  -0.682   0.968  0.00  0.00    -0.267 NA
ATOM      7  C6  <0> d           0.002  -0.004   0.002  0.00  0.00     0.038 C 
ATOM      8  H1  <0> d          -0.527   1.851   0.908  0.00  0.00     0.048 H 
ATOM      9  H2  <0> d          -0.544   1.861  -0.873  0.00  0.00     0.048 H 
ATOM     10  H3  <0> d           1.739   2.621  -0.824  0.00  0.00     0.077 H 
ATOM     11  H4  <0> d           3.241   2.093   0.950  0.00  0.00     0.083 H 
ATOM     12  H5  <0> d           2.178   1.227   3.109  0.00  0.00     0.085 H 
ATOM     13  H6  <0> d           0.791  -0.625   3.015  0.00  0.00     0.114 H 
ENDROOT
BRANCH   7  14
ATOM     14  C7  <0> d          -0.586  -0.737  -1.176  0.00  0.00     0.053 C 
ATOM     15  H7  <0> d          -1.640  -0.477  -1.276  0.00  0.00     0.083 H 
ATOM     16  H8  <0> d          -0.055  -0.451  -2.084  0.00  0.00     0.083 H 
BRANCH  14  17
ATOM     17  O1  <0> d          -0.460  -2.145  -0.973  0.00  0.00    -0.395 OA
ATOM     18  H9  <0> d          -0.818  -2.681  -1.694  0.00  0.00     0.209 HD
ENDBRANCH  14  17
ENDBRANCH   7  14
TORSDOF 2
