REMARK  3 active torsions:
REMARK  status: ('A' for Active; 'I' for Inactive)
REMARK    1  A    between atoms: C1_1  and  N1_2 
REMARK    2  A    between atoms: N1_2  and  C2_3 
REMARK    3  A    between atoms: N1_2  and  C3_4 
ROOT
ATOM      1  C3  <0> d          -0.018   1.468   0.010  0.00  0.00     0.245 C 
ATOM      2  C4  <0> d          -0.734   1.961   1.269  0.00  0.00    -0.018 C 
ATOM      3  C5  <0> d          -2.169   1.432   1.280  0.00  0.00    -0.062 C 
ATOM      4  C6  <0> d          -2.909   1.938   0.040  0.00  0.00    -0.065 C 
ATOM      5  C7  <0> d          -2.193   1.445  -1.219  0.00  0.00    -0.062 C 
ATOM      6  C8  <0> d          -0.758   1.975  -1.229  0.00  0.00    -0.018 C 
ATOM      7  C9  <0> d           0.002  -0.004   0.002  0.00  0.00     0.102 C 
ATOM      8  N2  <0> d           0.018  -1.140  -0.004  0.00  0.00    -0.194 NA
ATOM      9  H7  <0> d          -0.202   1.597   2.160  0.00  0.00     0.038 H 
ATOM     10  H8  <0> d          -0.749   3.061   1.275  0.00  0.00     0.038 H 
ATOM     11  H9  <0> d          -2.155   0.332   1.274  0.00  0.00     0.033 H 
ATOM     12  H10 <0> d          -2.684   1.786   2.185  0.00  0.00     0.033 H 
ATOM     13  H11 <0> d          -3.941   1.558   0.048  0.00  0.00     0.033 H 
ATOM     14  H12 <0> d          -2.924   3.038   0.046  0.00  0.00     0.033 H 
ATOM     15  H13 <0> d          -2.178   0.345  -1.225  0.00  0.00     0.033 H 
ATOM     16  H14 <0> d          -2.725   1.809  -2.110  0.00  0.00     0.033 H 
ATOM     17  H15 <0> d          -0.773   3.075  -1.223  0.00  0.00     0.038 H 
ATOM     18  H16 <0> d          -0.243   1.620  -2.134  0.00  0.00     0.038 H 
ENDROOT
BRANCH   1  19
ATOM     19  N1  <0> d           1.360   1.976  -0.000  0.00  0.00     0.103 N 
BRANCH  19  20
ATOM     20  C1  <0> d           2.103   1.509   1.178  0.00  0.00     0.097 C 
ATOM     21  H1  <0> d           1.565   1.803   2.091  0.00  0.00     0.071 H 
ATOM     22  H2  <0> d           3.106   1.960   1.182  0.00  0.00     0.071 H 
ATOM     23  H3  <0> d           2.194   0.413   1.143  0.00  0.00     0.071 H 
ENDBRANCH  19  20
BRANCH  19  24
ATOM     24  C2  <0> d           2.051   1.600  -1.241  0.00  0.00     0.097 C 
ATOM     25  H4  <0> d           1.474   1.962  -2.106  0.00  0.00     0.071 H 
ATOM     26  H5  <0> d           2.141   0.505  -1.293  0.00  0.00     0.071 H 
ATOM     27  H6  <0> d           3.054   2.052  -1.254  0.00  0.00     0.071 H 
ENDBRANCH  19  24
ENDBRANCH   1  19
TORSDOF 3
