REMARK  1 active torsions:
REMARK  status: ('A' for Active; 'I' for Inactive)
REMARK    1  A    between atoms: C3_3  and  C7_9 
ROOT
ATOM      1  C1  <0> d           1.179   2.154   0.002  0.00  0.00    -0.059 A 
ATOM      2  C2  <0> d           1.109   3.536   0.011  0.00  0.00    -0.047 A 
ATOM      3  C3  <0> d          -0.140   4.154   0.026  0.00  0.00     0.132 A 
ATOM      4  N1  <0> d          -1.256   3.434   0.033  0.00  0.00    -0.253 NA
ATOM      5  C4  <0> d          -1.233   2.121   0.019  0.00  0.00     0.023 A 
ATOM      6  C5  <0> d          -0.017   1.428   0.010  0.00  0.00     0.062 A 
ATOM      7  C6  <0> d           0.002  -0.004   0.002  0.00  0.00     0.101 C 
ATOM      8  N2  <0> d           0.018  -1.140  -0.004  0.00  0.00    -0.191 NA
ATOM      9  H1  <0> d           2.133   1.648  -0.010  0.00  0.00     0.086 H 
ATOM     10  H2  <0> d           2.012   4.129   0.005  0.00  0.00     0.087 H 
ATOM     11  H3  <0> d          -2.162   1.570   0.020  0.00  0.00     0.117 H 
ENDROOT
BRANCH   3  12
ATOM     12  C7  <0> d          -0.224   5.632   0.034  0.00  0.00     0.228 C 
ATOM     13  O1  <0> d           0.791   6.298   0.028  0.00  0.00    -0.643 OA
ATOM     14  O2  <0> d          -1.427   6.238   0.049  0.00  0.00    -0.643 OA
ENDBRANCH   3  12
TORSDOF 1
