REMARK  0 active torsions:
REMARK  status: ('A' for Active; 'I' for Inactive)
ROOT
ATOM      1  C1  <0> d          -0.017   1.387   0.010  0.00  0.00    -0.082 A 
ATOM      2  C2  <0> d           1.140   2.147   0.003  0.00  0.00    -0.076 A 
ATOM      3  C3  <0> d           2.383   1.541   0.019  0.00  0.00    -0.051 A 
ATOM      4  C4  <0> d           2.389   0.161   0.096  0.00  0.00    -0.041 A 
ATOM      5  C5  <0> d           1.246  -0.614   0.024  0.00  0.00    -0.051 A 
ATOM      6  C6  <0> d           0.002  -0.004   0.002  0.00  0.00    -0.076 A 
ATOM      7  C7  <0> d           1.641  -2.059  -0.084  0.00  0.00    -0.040 C 
ATOM      8  C8  <0> d           3.157  -2.043  -0.430  0.00  0.00    -0.054 C 
ATOM      9  C9  <0> d           3.614  -0.713   0.189  0.00  0.00    -0.027 C 
ATOM     10  H1  <0> d           3.928  -0.848   1.225  0.00  0.00     0.047 H 
ATOM     11  C10 <0> d           4.684   0.003  -0.639  0.00  0.00    -0.058 C 
ATOM     12  C11 <0> d           4.901   1.390  -0.032  0.00  0.00    -0.061 C 
ATOM     13  C12 <0> d           3.675   2.285  -0.079  0.00  0.00    -0.040 C 
ATOM     14  H2  <0> d          -0.971   1.893   0.026  0.00  0.00     0.083 H 
ATOM     15  H3  <0> d           1.070   3.224  -0.016  0.00  0.00     0.084 H 
ATOM     16  H4  <0> d          -0.910  -0.582  -0.020  0.00  0.00     0.084 H 
ATOM     17  H5  <0> d           1.476  -2.568   0.866  0.00  0.00     0.040 H 
ATOM     18  H6  <0> d           1.077  -2.547  -0.878  0.00  0.00     0.040 H 
ATOM     19  H7  <0> d           3.671  -2.885   0.033  0.00  0.00     0.034 H 
ATOM     20  H8  <0> d           3.309  -2.042  -1.510  0.00  0.00     0.034 H 
ATOM     21  H9  <0> d           5.615  -0.563  -0.607  0.00  0.00     0.034 H 
ATOM     22  H10 <0> d           4.347   0.101  -1.671  0.00  0.00     0.034 H 
ATOM     23  H11 <0> d           5.204   1.270   1.008  0.00  0.00     0.033 H 
ATOM     24  H12 <0> d           5.710   1.882  -0.571  0.00  0.00     0.033 H 
ATOM     25  H13 <0> d           3.686   2.843  -1.015  0.00  0.00     0.040 H 
ATOM     26  H14 <0> d           3.731   2.995   0.747  0.00  0.00     0.040 H 
ENDROOT
TORSDOF 0
