REMARK  3 active torsions:
REMARK  status: ('A' for Active; 'I' for Inactive)
REMARK    1  A    between atoms: C1_1  and  C2_2 
REMARK    2  A    between atoms: C2_2  and  C3_3 
REMARK    3  A    between atoms: C2_2  and  N1_4 
ROOT
ATOM      1  N1  <0> d          -1.372  -0.511   0.012  0.00  0.00    -0.344 N 
ATOM      2  C4  <0> d          -2.299  -0.268   0.975  0.00  0.00    -0.019 A 
ATOM      3  C5  <0> d          -3.449  -0.900   0.644  0.00  0.00    -0.065 A 
ATOM      4  C6  <0> d          -3.240  -1.565  -0.570  0.00  0.00    -0.045 A 
ATOM      5  C7  <0> d          -1.941  -1.308  -0.954  0.00  0.00     0.116 A 
ATOM      6  C8  <0> d          -1.300  -1.786  -2.142  0.00  0.00     0.117 C 
ATOM      7  N2  <0> d          -0.791  -2.165  -3.084  0.00  0.00    -0.190 NA
ATOM      8  H8  <0> d          -2.143   0.331   1.860  0.00  0.00     0.111 H 
ATOM      9  H9  <0> d          -4.365  -0.893   1.215  0.00  0.00     0.085 H 
ATOM     10  H10 <0> d          -3.961  -2.163  -1.107  0.00  0.00     0.088 H 
ENDROOT
BRANCH   1  11
ATOM     11  C2  <0> d           0.002  -0.004   0.002  0.00  0.00     0.010 C 
ATOM     12  H4  <0> d           0.512  -0.356  -0.895  0.00  0.00     0.072 H 
BRANCH  11  13
ATOM     13  C1  <0> d          -0.019   1.526   0.010  0.00  0.00    -0.057 C 
ATOM     14  H1  <0> d           1.004   1.903   0.003  0.00  0.00     0.030 H 
ATOM     15  H2  <0> d          -0.546   1.887  -0.873  0.00  0.00     0.030 H 
ATOM     16  H3  <0> d          -0.529   1.877   0.907  0.00  0.00     0.030 H 
ENDBRANCH  11  13
BRANCH  11  17
ATOM     17  C3  <0> d           0.742  -0.511   1.242  0.00  0.00    -0.057 C 
ATOM     18  H5  <0> d           0.232  -0.159   2.138  0.00  0.00     0.030 H 
ATOM     19  H6  <0> d           0.757  -1.601   1.236  0.00  0.00     0.030 H 
ATOM     20  H7  <0> d           1.765  -0.134   1.234  0.00  0.00     0.030 H 
ENDBRANCH  11  17
ENDBRANCH   1  11
TORSDOF 3
