REMARK  2 active torsions:
REMARK  status: ('A' for Active; 'I' for Inactive)
REMARK    1  A    between atoms: C4_5  and  N2_10 
REMARK    2  A    between atoms: C5_6  and  C6_7 
ROOT
ATOM      1  C1  <0> d          -0.077   1.276   0.024  0.00  0.00    -0.047 A 
ATOM      2  C2  <0> d           1.045   2.077   0.030  0.00  0.00     0.003 A 
ATOM      3  N1  <0> d           2.256   1.555   0.002  0.00  0.00    -0.271 NA
ATOM      4  C3  <0> d           2.459   0.256  -0.033  0.00  0.00     0.028 A 
ATOM      5  C4  <0> d           1.387  -0.633  -0.042  0.00  0.00     0.060 A 
ATOM      6  C5  <0> d           0.079  -0.116  -0.012  0.00  0.00     0.069 A 
ATOM      7  H1  <0> d          -1.064   1.716   0.051  0.00  0.00     0.087 H 
ATOM      8  H2  <0> d           0.931   3.151   0.057  0.00  0.00     0.114 H 
ATOM      9  H3  <0> d           3.469  -0.127  -0.054  0.00  0.00     0.118 H 
ENDROOT
BRANCH   5  10
ATOM     10  N2  <0> d           1.605  -2.002  -0.079  0.00  0.00    -0.397 N 
ATOM     11  H4  <0> d           2.506  -2.348  -0.181  0.00  0.00     0.156 HD
ATOM     12  H5  <0> d           0.857  -2.615  -0.003  0.00  0.00     0.156 HD
ENDBRANCH   5  10
BRANCH   6  13
ATOM     13  C6  <0> d          -1.092  -1.011  -0.019  0.00  0.00     0.211 C 
ATOM     14  O1  <0> d          -2.219  -0.544  -0.104  0.00  0.00    -0.644 OA
ATOM     15  O2  <0> d          -0.936  -2.222   0.060  0.00  0.00    -0.644 OA
ENDBRANCH   6  13
TORSDOF 2
