REMARK  4 active torsions:
REMARK  status: ('A' for Active; 'I' for Inactive)
REMARK    1  A    between atoms: C1_1  and  O1_2 
REMARK    2  A    between atoms: O1_2  and  C2_3 
REMARK    3  A    between atoms: C2_3  and  C3_4 
REMARK    4  A    between atoms: C8_9  and  N1_10 
ROOT
ATOM      1  C3  <0> d           1.213  -0.684  -0.013  0.00  0.00    -0.008 A 
ATOM      2  C4  <0> d           1.228  -2.065  -0.020  0.00  0.00    -0.073 A 
ATOM      3  C5  <0> d           0.040  -2.771  -0.012  0.00  0.00    -0.082 A 
ATOM      4  C6  <0> d          -1.168  -2.097   0.003  0.00  0.00    -0.081 A 
ATOM      5  C7  <0> d          -1.190  -0.717   0.015  0.00  0.00    -0.057 A 
ATOM      6  C8  <0> d           0.002  -0.004   0.002  0.00  0.00     0.034 A 
ATOM      7  H6  <0> d           2.170  -2.594  -0.032  0.00  0.00     0.084 H 
ATOM      8  H7  <0> d           0.054  -3.851  -0.017  0.00  0.00     0.083 H 
ATOM      9  H8  <0> d          -2.095  -2.652   0.010  0.00  0.00     0.083 H 
ATOM     10  H9  <0> d          -2.134  -0.191   0.032  0.00  0.00     0.086 H 
ENDROOT
BRANCH   1  11
ATOM     11  C2  <0> d           2.510   0.085  -0.021  0.00  0.00     0.045 C 
ATOM     12  H4  <0> d           2.551   0.717  -0.908  0.00  0.00     0.081 H 
ATOM     13  H5  <0> d           2.568   0.708   0.871  0.00  0.00     0.081 H 
BRANCH  11  14
ATOM     14  O1  <0> d           3.606  -0.831  -0.037  0.00  0.00    -0.391 OA
BRANCH  14  15
ATOM     15  C1  <0> d           4.889  -0.201  -0.046  0.00  0.00     0.004 C 
ATOM     16  H1  <0> d           4.997   0.415   0.847  0.00  0.00     0.066 H 
ATOM     17  H2  <0> d           5.668  -0.964  -0.057  0.00  0.00     0.066 H 
ATOM     18  H3  <0> d           4.980   0.425  -0.933  0.00  0.00     0.066 H 
ENDBRANCH  14  15
ENDBRANCH  11  14
ENDBRANCH   1  11
BRANCH   6  19
ATOM     19  N1  <0> d          -0.017   1.393   0.010  0.00  0.00    -0.399 N 
ATOM     20  H10 <0> d           0.817   1.889   0.004  0.00  0.00     0.156 HD
ATOM     21  H11 <0> d          -0.863   1.866   0.016  0.00  0.00     0.156 HD
ENDBRANCH   6  19
TORSDOF 4
