REMARK  3 active torsions:
REMARK  status: ('A' for Active; 'I' for Inactive)
REMARK    1  A    between atoms: C1_1  and  C2_2 
REMARK    2  A    between atoms: C5_5  and  N3_8 
REMARK    3  A    between atoms: N3_8  and  C6_9 
ROOT
ATOM      1  C2  <0> d           0.002  -0.004   0.002  0.00  0.00     0.053 A 
ATOM      2  C3  <0> d           0.006  -0.691  -1.204  0.00  0.00    -0.054 A 
ATOM      3  C4  <0> d           0.025  -2.076  -1.164  0.00  0.00    -0.035 A 
ATOM      4  C5  <0> d           0.039  -2.693   0.086  0.00  0.00     0.145 A 
ATOM      5  N1  <0> d           0.034  -1.952   1.184  0.00  0.00    -0.132 NA
ATOM      6  N2  <0> d           0.022  -0.669   1.140  0.00  0.00    -0.153 NA
ATOM      7  H4  <0> d          -0.006  -0.162  -2.146  0.00  0.00     0.086 H 
ATOM      8  H5  <0> d           0.028  -2.659  -2.073  0.00  0.00     0.089 H 
ENDROOT
BRANCH   4   9
ATOM      9  N3  <0> d           0.058  -4.081   0.181  0.00  0.00    -0.378 N 
ATOM     10  H6  <0> d           0.068  -4.507   1.052  0.00  0.00     0.160 HD
BRANCH   9  11
ATOM     11  C6  <0> d           0.063  -4.897  -1.035  0.00  0.00    -0.020 C 
ATOM     12  H7  <0> d          -0.833  -4.685  -1.619  0.00  0.00     0.056 H 
ATOM     13  H8  <0> d           0.947  -4.662  -1.628  0.00  0.00     0.056 H 
ATOM     14  H9  <0> d           0.078  -5.953  -0.764  0.00  0.00     0.056 H 
ENDBRANCH   9  11
ENDBRANCH   4   9
BRANCH   1  15
ATOM     15  C1  <0> d          -0.018   1.503   0.010  0.00  0.00    -0.034 C 
ATOM     16  H1  <0> d           1.004   1.880   0.003  0.00  0.00     0.035 H 
ATOM     17  H2  <0> d          -0.545   1.864  -0.873  0.00  0.00     0.035 H 
ATOM     18  H3  <0> d          -0.529   1.854   0.907  0.00  0.00     0.035 H 
ENDBRANCH   1  15
TORSDOF 3
