REMARK  3 active torsions:
REMARK  status: ('A' for Active; 'I' for Inactive)
REMARK    1  A    between atoms: C1_1  and  N1_2 
REMARK    2  A    between atoms: N1_2  and  C2_3 
REMARK       I    between atoms: N1_2  and  C3_4 
REMARK    3  A    between atoms: C3_4  and  C4_6 
ROOT
ATOM      1  C4  <0> d          -0.052   3.846   0.061  0.00  0.00     0.032 A 
ATOM      2  C5  <0> d           1.028   3.151  -0.488  0.00  0.00    -0.068 A 
ATOM      3  C6  <0> d           1.039   1.772  -0.467  0.00  0.00    -0.082 A 
ATOM      4  C7  <0> d          -0.017   1.077   0.097  0.00  0.00    -0.083 A 
ATOM      5  C8  <0> d          -1.092   1.759   0.637  0.00  0.00    -0.082 A 
ATOM      6  C9  <0> d          -1.113   3.139   0.628  0.00  0.00    -0.068 A 
ATOM      7  H7  <0> d           1.852   3.692  -0.928  0.00  0.00     0.085 H 
ATOM      8  H8  <0> d           1.873   1.233  -0.891  0.00  0.00     0.083 H 
ATOM      9  H9  <0> d          -0.003  -0.003   0.111  0.00  0.00     0.083 H 
ATOM     10  H10 <0> d          -1.915   1.211   1.071  0.00  0.00     0.083 H 
ATOM     11  H11 <0> d          -1.951   3.670   1.054  0.00  0.00     0.085 H 
ENDROOT
BRANCH   1  12
ATOM     12  C3  <0> d          -0.071   5.324   0.041  0.00  0.00     0.253 C 
ATOM     13  N1  <0> d          -1.243   5.981  -0.056  0.00  0.00    -0.357 N 
ATOM     14  O1  <0> d           0.971   5.946   0.113  0.00  0.00    -0.267 OA
BRANCH  13  15
ATOM     15  C1  <0> d          -1.256   7.442  -0.170  0.00  0.00    -0.016 C 
ATOM     16  H1  <0> d          -1.219   7.725  -1.222  0.00  0.00     0.056 H 
ATOM     17  H2  <0> d          -2.169   7.833   0.279  0.00  0.00     0.056 H 
ATOM     18  H3  <0> d          -0.390   7.855   0.347  0.00  0.00     0.056 H 
ENDBRANCH  13  15
BRANCH  13  19
ATOM     19  C2  <0> d          -2.504   5.236  -0.048  0.00  0.00    -0.016 C 
ATOM     20  H4  <0> d          -2.898   5.199   0.968  0.00  0.00     0.056 H 
ATOM     21  H5  <0> d          -3.224   5.732  -0.699  0.00  0.00     0.056 H 
ATOM     22  H6  <0> d          -2.329   4.222  -0.406  0.00  0.00     0.056 H 
ENDBRANCH  13  19
ENDBRANCH   1  12
TORSDOF 3
