REMARK  4 active torsions:
REMARK  status: ('A' for Active; 'I' for Inactive)
REMARK    1  A    between atoms: C2_2  and  O4_12 
REMARK    2  A    between atoms: C3_4  and  C5_10 
REMARK    3  A    between atoms: C4_7  and  O2_9 
REMARK    4  A    between atoms: C5_10  and  O3_11 
ROOT
ATOM      1  C1  <0> d           1.718   1.905  -1.498  0.00  0.00     0.007 C 
ATOM      2  C2  <0> d           1.428   1.643  -0.003  0.00  0.00     0.067 C 
ATOM      3  H1  <0> d           1.482   2.572   0.565  0.00  0.00     0.087 H 
ATOM      4  C3  <0> d          -0.013   1.086   0.008  0.00  0.00     0.086 C 
ATOM      5  H2  <0> d           0.002  -0.004   0.002  0.00  0.00     0.090 H 
ATOM      6  O1  <0> d          -0.612   1.587  -1.207  0.00  0.00    -0.351 OA
ATOM      7  C4  <0> d           0.418   1.475  -2.213  0.00  0.00     0.131 C 
ATOM      8  H3  <0> d           0.500   0.445  -2.562  0.00  0.00     0.128 H 
ATOM      9  H4  <0> d           1.916   2.963  -1.669  0.00  0.00     0.044 H 
ATOM     10  H5  <0> d           2.560   1.301  -1.835  0.00  0.00     0.044 H 
ENDROOT
BRANCH   4  11
ATOM     11  C5  <0> d          -0.774   1.600   1.232  0.00  0.00     0.043 C 
ATOM     12  H7  <0> d          -0.230   1.333   2.137  0.00  0.00     0.078 H 
ATOM     13  H8  <0> d          -0.868   2.685   1.171  0.00  0.00     0.078 H 
BRANCH  11  14
ATOM     14  O3  <0> d          -2.075   1.011   1.266  0.00  0.00    -0.398 OA
ATOM     15  H9  <0> d          -2.615   1.293   2.017  0.00  0.00     0.209 HD
ENDBRANCH  11  14
ENDBRANCH   4  11
BRANCH   2  16
ATOM     16  O4  <0> d           2.341   0.680   0.526  0.00  0.00    -0.393 OA
ATOM     17  H10 <0> d           3.261   0.978   0.543  0.00  0.00     0.210 HD
ENDBRANCH   2  16
BRANCH   7  18
ATOM     18  O2  <0> d           0.141   2.349  -3.309  0.00  0.00    -0.371 OA
ATOM     19  H6  <0> d          -0.665   2.127  -3.795  0.00  0.00     0.212 HD
ENDBRANCH   7  18
TORSDOF 4
