REMARK  4 active torsions:
REMARK  status: ('A' for Active; 'I' for Inactive)
REMARK    1  A    between atoms: C1_1  and  C2_2 
REMARK    2  A    between atoms: C3_4  and  C5_7 
REMARK    3  A    between atoms: C3_4  and  C6_8 
REMARK    4  A    between atoms: C6_8  and  O2_9 
ROOT
ATOM      1  C2  <0> d          -2.237   0.143  -2.091  0.00  0.00     0.131 C 
ATOM      2  N1  <0> d          -2.148   1.111  -1.247  0.00  0.00    -0.256 NA
ATOM      3  C3  <0> d          -0.753   1.593  -1.232  0.00  0.00     0.095 C 
ATOM      4  C4  <0> d          -0.179   0.952  -2.519  0.00  0.00     0.054 C 
ATOM      5  O1  <0> d          -1.077  -0.162  -2.702  0.00  0.00    -0.336 OA
ATOM      6  H4  <0> d          -0.236   1.643  -3.360  0.00  0.00     0.079 H 
ATOM      7  H5  <0> d           0.845   0.610  -2.365  0.00  0.00     0.079 H 
ENDROOT
BRANCH   3   8
ATOM      8  C5  <0> d          -0.700   3.120  -1.310  0.00  0.00    -0.047 C 
ATOM      9  H6  <0> d           0.338   3.445  -1.377  0.00  0.00     0.031 H 
ATOM     10  H7  <0> d          -1.244   3.457  -2.193  0.00  0.00     0.031 H 
ATOM     11  H8  <0> d          -1.158   3.545  -0.417  0.00  0.00     0.031 H 
ENDBRANCH   3   8
BRANCH   3  12
ATOM     12  C6  <0> d          -0.013   1.086   0.008  0.00  0.00     0.044 C 
ATOM     13  H9  <0> d           0.002  -0.004   0.002  0.00  0.00     0.078 H 
ATOM     14  H10 <0> d           1.010   1.463   0.000  0.00  0.00     0.078 H 
BRANCH  12  15
ATOM     15  O2  <0> d          -0.682   1.547   1.184  0.00  0.00    -0.398 OA
ATOM     16  H11 <0> d          -0.266   1.262   2.009  0.00  0.00     0.209 HD
ENDBRANCH  12  15
ENDBRANCH   3  12
BRANCH   1  17
ATOM     17  C1  <0> d          -3.527  -0.583  -2.371  0.00  0.00    -0.016 C 
ATOM     18  H1  <0> d          -3.353  -1.357  -3.119  0.00  0.00     0.038 H 
ATOM     19  H2  <0> d          -3.893  -1.041  -1.452  0.00  0.00     0.038 H 
ATOM     20  H3  <0> d          -4.268   0.123  -2.745  0.00  0.00     0.038 H 
ENDBRANCH   1  17
TORSDOF 4
