REMARK  5 active torsions:
REMARK  status: ('A' for Active; 'I' for Inactive)
REMARK    1  A    between atoms: C1_1  and  C2_2 
REMARK    2  A    between atoms: C3_5  and  C4_7 
REMARK    3  A    between atoms: C4_7  and  O2_8 
REMARK    4  A    between atoms: O2_8  and  C5_9 
REMARK    5  A    between atoms: C5_9  and  C6_11 
ROOT
ATOM      1  C4  <0> d           0.055  -3.322   1.448  0.00  0.00     0.091 C 
ATOM      2  H4  <0> d          -0.458  -3.142   2.392  0.00  0.00     0.088 H 
ATOM      3  H5  <0> d          -0.449  -4.124   0.908  0.00  0.00     0.088 H 
ENDROOT
BRANCH   1   4
ATOM      4  C3  <0> d           0.034  -2.066   0.616  0.00  0.00     0.193 A 
ATOM      5  N2  <0> d           0.027  -2.002  -0.685  0.00  0.00    -0.124 NA
ATOM      6  N1  <0> d           0.008  -0.769  -1.052  0.00  0.00    -0.127 NA
ATOM      7  C2  <0> d           0.002  -0.004   0.002  0.00  0.00     0.165 A 
ATOM      8  O1  <0> d           0.023  -0.805   1.081  0.00  0.00    -0.276 OA
BRANCH   7   9
ATOM      9  C1  <0> d          -0.018   1.503   0.010  0.00  0.00    -0.013 C 
ATOM     10  H1  <0> d           1.004   1.880   0.003  0.00  0.00     0.038 H 
ATOM     11  H2  <0> d          -0.545   1.864  -0.873  0.00  0.00     0.038 H 
ATOM     12  H3  <0> d          -0.529   1.854   0.907  0.00  0.00     0.038 H 
ENDBRANCH   7   9
ENDBRANCH   1   4
BRANCH   1  13
ATOM     13  O2  <0> d           1.409  -3.700   1.705  0.00  0.00    -0.314 OA
BRANCH  13  14
ATOM     14  C5  <0> d           1.604  -4.807   2.438  0.00  0.00     0.255 C 
ATOM     15  O3  <0> d           0.656  -5.435   2.848  0.00  0.00    -0.266 OA
BRANCH  14  16
ATOM     16  C6  <0> d           3.004  -5.268   2.751  0.00  0.00     0.004 C 
ATOM     17  H6  <0> d           3.337  -4.812   3.683  0.00  0.00     0.041 H 
ATOM     18  H7  <0> d           3.016  -6.353   2.852  0.00  0.00     0.041 H 
ATOM     19  H8  <0> d           3.673  -4.972   1.942  0.00  0.00     0.041 H 
ENDBRANCH  14  16
ENDBRANCH  13  14
ENDBRANCH   1  13
TORSDOF 5
