REMARK  0 active torsions:
REMARK  status: ('A' for Active; 'I' for Inactive)
ROOT
ATOM      1  C1  <0> d          -0.013   1.086   0.008  0.00  0.00    -0.054 C 
ATOM      2  C2  <0> d          -0.699   1.564   1.286  0.00  0.00    -0.029 C 
ATOM      3  C3  <0> d          -0.656   3.095   1.317  0.00  0.00     0.083 C 
ATOM      4  H1  <0> d           0.371   3.460   1.343  0.00  0.00     0.107 H 
ATOM      5  N1  <0> d          -1.416   3.631   2.445  0.00  0.00    -0.338 N 
ATOM      6  C4  <0> d          -2.287   4.564   2.005  0.00  0.00     0.237 C 
ATOM      7  O1  <0> d          -3.114   5.139   2.681  0.00  0.00    -0.272 OA
ATOM      8  C5  <0> d          -2.052   4.772   0.521  0.00  0.00     0.073 C 
ATOM      9  N2  <0> d          -1.340   3.562   0.095  0.00  0.00    -0.322 N 
ATOM     10  C6  <0> d          -1.325   2.938  -1.083  0.00  0.00     0.221 C 
ATOM     11  O2  <0> d          -1.813   3.486  -2.049  0.00  0.00    -0.273 OA
ATOM     12  C7  <0> d          -0.719   1.575  -1.244  0.00  0.00     0.010 C 
ATOM     13  H2  <0> d           0.002  -0.004   0.002  0.00  0.00     0.033 H 
ATOM     14  H3  <0> d           1.014   1.452   0.000  0.00  0.00     0.033 H 
ATOM     15  H4  <0> d          -1.735   1.226   1.294  0.00  0.00     0.038 H 
ATOM     16  H5  <0> d          -0.174   1.167   2.155  0.00  0.00     0.038 H 
ATOM     17  H6  <0> d          -1.311   3.356   3.369  0.00  0.00     0.164 HD
ATOM     18  H7  <0> d          -1.436   5.655   0.352  0.00  0.00     0.079 H 
ATOM     19  H8  <0> d          -3.001   4.861  -0.007  0.00  0.00     0.079 H 
ATOM     20  H9  <0> d          -0.001   1.605  -2.063  0.00  0.00     0.047 H 
ATOM     21  H10 <0> d          -1.510   0.870  -1.499  0.00  0.00     0.047 H 
ENDROOT
TORSDOF 0
