REMARK  2 active torsions:
REMARK  status: ('A' for Active; 'I' for Inactive)
REMARK    1  A    between atoms: C1_1  and  C2_2 
REMARK    2  A    between atoms: C6_7  and  C7_9 
ROOT
ATOM      1  C2  <0> d           1.119   3.313   0.009  0.00  0.00     0.053 A 
ATOM      2  C3  <0> d           1.189   1.969   0.001  0.00  0.00    -0.005 A 
ATOM      3  C4  <0> d          -0.015   1.216   0.009  0.00  0.00     0.197 A 
ATOM      4  O1  <0> d           0.002  -0.004   0.002  0.00  0.00    -0.287 OA
ATOM      5  C5  <0> d          -1.285   1.963   0.019  0.00  0.00     0.123 A 
ATOM      6  C6  <0> d          -1.228   3.329   0.032  0.00  0.00     0.074 A 
ATOM      7  O2  <0> d          -0.051   3.960   0.024  0.00  0.00    -0.318 OA
ATOM      8  C8  <0> d          -2.542   1.278   0.020  0.00  0.00     0.106 C 
ATOM      9  N1  <0> d          -3.540   0.735   0.021  0.00  0.00    -0.191 NA
ATOM     10  H4  <0> d           2.147   1.470  -0.010  0.00  0.00     0.093 H 
ENDROOT
BRANCH   6  11
ATOM     11  C7  <0> d          -2.504   4.129   0.048  0.00  0.00    -0.030 C 
ATOM     12  H5  <0> d          -2.266   5.193   0.052  0.00  0.00     0.036 H 
ATOM     13  H6  <0> d          -3.094   3.892  -0.837  0.00  0.00     0.036 H 
ATOM     14  H7  <0> d          -3.076   3.882   0.943  0.00  0.00     0.036 H 
ENDBRANCH   6  11
BRANCH   1  15
ATOM     15  C1  <0> d           2.396   4.113   0.001  0.00  0.00    -0.031 C 
ATOM     16  H1  <0> d           2.694   4.311  -1.029  0.00  0.00     0.036 H 
ATOM     17  H2  <0> d           2.237   5.057   0.521  0.00  0.00     0.036 H 
ATOM     18  H3  <0> d           3.181   3.549   0.504  0.00  0.00     0.036 H 
ENDBRANCH   1  15
TORSDOF 2
