REMARK  3 active torsions:
REMARK  status: ('A' for Active; 'I' for Inactive)
REMARK    1  A    between atoms: C1_1  and  C2_2 
REMARK    2  A    between atoms: C2_2  and  C3_3 
REMARK    3  A    between atoms: C2_2  and  C4_4 
ROOT
ATOM      1  C2  <0> d          -1.646   4.104   0.037  0.00  0.00     0.006 C 
ATOM      2  H4  <0> d          -2.533   3.831  -0.554  0.00  0.00     0.051 H 
ENDROOT
BRANCH   1   3
ATOM      3  C1  <0> d          -2.056   4.409   1.479  0.00  0.00    -0.066 C 
ATOM      4  H1  <0> d          -2.540   3.524   1.918  0.00  0.00     0.028 H 
ATOM      5  H2  <0> d          -2.759   5.255   1.490  0.00  0.00     0.028 H 
ATOM      6  H3  <0> d          -1.163   4.668   2.067  0.00  0.00     0.028 H 
ENDBRANCH   1   3
BRANCH   1   7
ATOM      7  C3  <0> d          -0.973   5.335  -0.573  0.00  0.00    -0.066 C 
ATOM      8  H5  <0> d          -0.678   5.115  -1.610  0.00  0.00     0.028 H 
ATOM      9  H6  <0> d          -0.080   5.593   0.015  0.00  0.00     0.028 H 
ATOM     10  H7  <0> d          -1.676   6.180  -0.563  0.00  0.00     0.028 H 
ENDBRANCH   1   7
BRANCH   1  11
ATOM     11  C4  <0> d          -0.683   2.945   0.023  0.00  0.00     0.179 A 
ATOM     12  O2  <0> d          -1.010   1.655   0.015  0.00  0.00    -0.193 OA
ATOM     13  N2  <0> d          -0.011   0.966   0.007  0.00  0.00    -0.064 NA
ATOM     14  C5  <0> d           1.078   1.761   0.001  0.00  0.00     0.392 A 
ATOM     15  N1  <0> d           0.627   3.031   0.011  0.00  0.00    -0.168 NA
ATOM     16  O1  <0> d           2.243   1.401  -0.012  0.00  0.00    -0.240 OA
ENDBRANCH   1  11
TORSDOF 3
