REMARK  2 active torsions:
REMARK  status: ('A' for Active; 'I' for Inactive)
REMARK    1  A    between atoms: C2_2  and  C4_6 
REMARK    2  A    between atoms: C4_6  and  C5_7 
ROOT
ATOM      1  C1  <0> d          -1.194   2.182   0.019  0.00  0.00    -0.019 A 
ATOM      2  C2  <0> d          -0.018   1.503   0.010  0.00  0.00     0.051 A 
ATOM      3  N1  <0> d           1.103   2.192   0.003  0.00  0.00    -0.258 NA
ATOM      4  C3  <0> d           1.100   3.505   0.010  0.00  0.00     0.040 A 
ATOM      5  S1  <0> d          -0.599   3.867   0.029  0.00  0.00    -0.092 SA
ATOM      6  H1  <0> d          -2.207   1.808   0.022  0.00  0.00     0.098 H 
ATOM      7  H2  <0> d           1.938   4.186   0.006  0.00  0.00     0.126 H 
ENDROOT
BRANCH   2   8
ATOM      8  C4  <0> d           0.002  -0.004   0.002  0.00  0.00     0.056 C 
ATOM      9  H3  <0> d           0.450  -0.366   0.927  0.00  0.00     0.058 H 
ATOM     10  H4  <0> d          -1.017  -0.381  -0.080  0.00  0.00     0.058 H 
BRANCH   8  11
ATOM     11  C5  <0> d           0.813  -0.489  -1.172  0.00  0.00     0.178 C 
ATOM     12  O1  <0> d           1.322   0.307  -1.925  0.00  0.00    -0.648 OA
ATOM     13  O2  <0> d           0.970  -1.806  -1.381  0.00  0.00    -0.648 OA
ENDBRANCH   8  11
ENDBRANCH   2   8
TORSDOF 2
