REMARK  3 active torsions:
REMARK  status: ('A' for Active; 'I' for Inactive)
REMARK    1  A    between atoms: C1_1  and  C2_2 
REMARK    2  A    between atoms: C3_3  and  N3_8 
REMARK    3  A    between atoms: C4_6  and  N2_7 
ROOT
ATOM      1  C2  <0> d          -1.398   2.993   0.030  0.00  0.00     0.038 A 
ATOM      2  C3  <0> d          -2.805   3.149   0.033  0.00  0.00     0.159 A 
ATOM      3  N1  <0> d          -3.309   1.940   0.029  0.00  0.00    -0.108 NA
ATOM      4  O1  <0> d          -2.445   1.095   0.020  0.00  0.00    -0.193 OA
ATOM      5  C4  <0> d          -1.218   1.641   0.017  0.00  0.00     0.176 A 
ENDROOT
BRANCH   1   6
ATOM      6  C1  <0> d          -0.344   4.070   0.039  0.00  0.00    -0.043 C 
ATOM      7  H1  <0> d          -0.092   4.340  -0.987  0.00  0.00     0.033 H 
ATOM      8  H2  <0> d          -0.725   4.947   0.562  0.00  0.00     0.033 H 
ATOM      9  H3  <0> d           0.547   3.703   0.547  0.00  0.00     0.033 H 
ENDBRANCH   1   6
BRANCH   5  10
ATOM     10  N2  <0> d          -0.011   0.966   0.007  0.00  0.00    -0.378 N 
ATOM     11  H4  <0> d           0.002  -0.004   0.002  0.00  0.00     0.158 HD
ATOM     12  H5  <0> d           0.822   1.462   0.002  0.00  0.00     0.158 HD
ENDBRANCH   5  10
BRANCH   2  13
ATOM     13  N3  <0> d          -3.511   4.347   0.043  0.00  0.00    -0.382 N 
ATOM     14  H6  <0> d          -4.481   4.339   0.048  0.00  0.00     0.157 HD
ATOM     15  H7  <0> d          -3.034   5.192   0.046  0.00  0.00     0.157 HD
ENDBRANCH   2  13
TORSDOF 3
