REMARK  2 active torsions:
REMARK  status: ('A' for Active; 'I' for Inactive)
REMARK    1  A    between atoms: C3_3  and  C5_6 
REMARK    2  A    between atoms: C5_6  and  C6_7 
ROOT
ATOM      1  C5  <0> d          -0.013   1.086   0.008  0.00  0.00     0.024 C 
ATOM      2  H4  <0> d           0.002  -0.004   0.002  0.00  0.00     0.053 H 
ATOM      3  H5  <0> d           1.010   1.463   0.000  0.00  0.00     0.053 H 
ENDROOT
BRANCH   1   4
ATOM      4  C3  <0> d          -0.742   1.585  -1.213  0.00  0.00     0.058 A 
ATOM      5  C2  <0> d          -0.504   2.745  -1.851  0.00  0.00    -0.052 A 
ATOM      6  C1  <0> d          -1.411   2.810  -2.934  0.00  0.00    -0.059 A 
ATOM      7  H2  <0> d           0.236   3.485  -1.587  0.00  0.00     0.087 H 
ATOM      8  C4  <0> d          -2.148   1.685  -2.893  0.00  0.00     0.019 A 
ATOM      9  H1  <0> d          -1.496   3.608  -3.656  0.00  0.00     0.086 H 
ATOM     10  O1  <0> d          -1.734   0.945  -1.851  0.00  0.00    -0.327 OA
ATOM     11  H3  <0> d          -2.936   1.420  -3.583  0.00  0.00     0.123 H 
ENDBRANCH   1   4
BRANCH   1  12
ATOM     12  C6  <0> d          -0.718   1.572   1.248  0.00  0.00     0.058 A 
ATOM     13  O2  <0> d          -0.465   2.720   1.896  0.00  0.00    -0.327 OA
ATOM     14  C9  <0> d          -1.286   2.828   2.954  0.00  0.00     0.019 A 
ATOM     15  C8  <0> d          -2.070   1.736   2.996  0.00  0.00    -0.059 A 
ATOM     16  H8  <0> d          -1.309   3.649   3.655  0.00  0.00     0.123 H 
ATOM     17  C7  <0> d          -1.704   0.926   1.896  0.00  0.00    -0.052 A 
ATOM     18  H7  <0> d          -2.833   1.519   3.729  0.00  0.00     0.086 H 
ATOM     19  H6  <0> d          -2.134  -0.028   1.628  0.00  0.00     0.087 H 
ENDBRANCH   1  12
TORSDOF 2
