REMARK  4 active torsions:
REMARK  status: ('A' for Active; 'I' for Inactive)
REMARK    1  A    between atoms: C1_1  and  C2_2 
REMARK    2  A    between atoms: C2_2  and  C3_3 
REMARK    3  A    between atoms: C3_3  and  O2_5 
REMARK    4  A    between atoms: O2_5  and  C4_6 
ROOT
ATOM      1  C3  <0> d          -2.310   1.480   0.022  0.00  0.00     0.266 C 
ATOM      2  O1  <0> d          -2.366   0.273   0.016  0.00  0.00    -0.265 OA
ENDROOT
BRANCH   1   3
ATOM      3  C2  <0> d          -3.579   2.293   0.033  0.00  0.00     0.013 C 
ATOM      4  H4  <0> d          -3.604   2.917   0.926  0.00  0.00     0.047 H 
ATOM      5  H5  <0> d          -3.613   2.926  -0.854  0.00  0.00     0.047 H 
BRANCH   3   6
ATOM      6  C1  <0> d          -4.787   1.353   0.034  0.00  0.00    -0.068 C 
ATOM      7  H1  <0> d          -5.705   1.941   0.042  0.00  0.00     0.028 H 
ATOM      8  H2  <0> d          -4.763   0.729  -0.859  0.00  0.00     0.028 H 
ATOM      9  H3  <0> d          -4.753   0.720   0.921  0.00  0.00     0.028 H 
ENDBRANCH   3   6
ENDBRANCH   1   3
BRANCH   1  10
ATOM     10  O2  <0> d          -1.117   2.098   0.019  0.00  0.00    -0.240 OA
BRANCH  10  11
ATOM     11  C4  <0> d          -0.016   1.308   0.009  0.00  0.00     0.316 A 
ATOM     12  N3  <0> d           0.002  -0.004   0.002  0.00  0.00    -0.080 NA
ATOM     13  N2  <0> d           1.211  -0.438  -0.012  0.00  0.00    -0.019 NA
ATOM     14  N1  <0> d           2.040   0.549  -0.015  0.00  0.00    -0.019 NA
ATOM     15  N4  <0> d           1.261   1.699  -0.001  0.00  0.00    -0.080 NA
ENDBRANCH  10  11
ENDBRANCH   1  10
TORSDOF 4
