REMARK  2 active torsions:
REMARK  status: ('A' for Active; 'I' for Inactive)
REMARK    1  A    between atoms: C1_1  and  S1_2 
REMARK    2  A    between atoms: S1_2  and  C2_4 
ROOT
ATOM      1  C2  <0> d           2.387   0.110  -0.020  0.00  0.00     0.122 A 
ATOM      2  C3  <0> d           1.230  -0.647  -0.013  0.00  0.00    -0.046 A 
ATOM      3  C4  <0> d           0.002  -0.004   0.002  0.00  0.00    -0.079 A 
ATOM      4  C5  <0> d          -0.017   1.383   0.010  0.00  0.00    -0.066 A 
ATOM      5  C6  <0> d           1.181   2.072   0.002  0.00  0.00     0.004 A 
ATOM      6  N1  <0> d           2.331   1.427  -0.013  0.00  0.00    -0.252 NA
ATOM      7  H4  <0> d           1.282  -1.726  -0.020  0.00  0.00     0.087 H 
ATOM      8  H5  <0> d          -0.918  -0.570   0.007  0.00  0.00     0.083 H 
ATOM      9  H6  <0> d          -0.955   1.917   0.017  0.00  0.00     0.085 H 
ATOM     10  H7  <0> d           1.175   3.152   0.007  0.00  0.00     0.114 H 
ENDROOT
BRANCH   1  11
ATOM     11  S1  <0> d           3.954  -0.695  -0.040  0.00  0.00     0.064 S 
ATOM     12  O1  <0> d           3.693  -1.971   0.529  0.00  0.00    -0.252 OA
BRANCH  11  13
ATOM     13  C1  <0> d           4.327  -0.886  -1.805  0.00  0.00    -0.002 C 
ATOM     14  H1  <0> d           4.364   0.096  -2.277  0.00  0.00     0.045 H 
ATOM     15  H2  <0> d           5.291  -1.381  -1.921  0.00  0.00     0.045 H 
ATOM     16  H3  <0> d           3.551  -1.487  -2.278  0.00  0.00     0.045 H 
ENDBRANCH  11  13
ENDBRANCH   1  11
TORSDOF 2
