REMARK  2 active torsions:
REMARK  status: ('A' for Active; 'I' for Inactive)
REMARK    1  A    between atoms: C1_1  and  C2_2 
REMARK    2  A    between atoms: C6_6  and  C8_9 
ROOT
ATOM      1  C2  <0> d           0.002  -0.004   0.002  0.00  0.00    -0.022 A 
ATOM      2  C3  <0> d           0.006  -0.688  -1.200  0.00  0.00    -0.074 A 
ATOM      3  C4  <0> d           0.025  -2.071  -1.217  0.00  0.00    -0.082 A 
ATOM      4  C5  <0> d           0.040  -2.779  -0.033  0.00  0.00    -0.070 A 
ATOM      5  C6  <0> d           0.036  -2.098   1.185  0.00  0.00     0.002 A 
ATOM      6  C7  <0> d           0.023  -0.700   1.196  0.00  0.00     0.132 A 
ATOM      7  F1  <0> d           0.025  -0.032   2.370  0.00  0.00    -0.205 F 
ATOM      8  H4  <0> d          -0.007  -0.139  -2.131  0.00  0.00     0.084 H 
ATOM      9  H5  <0> d           0.028  -2.598  -2.159  0.00  0.00     0.083 H 
ATOM     10  H6  <0> d           0.054  -3.859  -0.048  0.00  0.00     0.084 H 
ENDROOT
BRANCH   5  11
ATOM     11  C8  <0> d           0.053  -2.850   2.457  0.00  0.00    -0.079 C 
ATOM     12  C9  <0> d           0.070  -4.176   2.442  0.00  0.00    -0.120 C 
ATOM     13  H8  <0> d           0.073  -4.706   1.502  0.00  0.00     0.066 H 
ATOM     14  H9  <0> d           0.082  -4.726   3.372  0.00  0.00     0.066 H 
ATOM     15  H7  <0> d           0.050  -2.320   3.397  0.00  0.00     0.083 H 
ENDBRANCH   5  11
BRANCH   1  16
ATOM     16  C1  <0> d          -0.018   1.503   0.010  0.00  0.00    -0.048 C 
ATOM     17  H1  <0> d           1.004   1.880   0.003  0.00  0.00     0.033 H 
ATOM     18  H2  <0> d          -0.545   1.864  -0.873  0.00  0.00     0.033 H 
ATOM     19  H3  <0> d          -0.529   1.854   0.907  0.00  0.00     0.033 H 
ENDBRANCH   1  16
TORSDOF 2
