REMARK  3 active torsions:
REMARK  status: ('A' for Active; 'I' for Inactive)
REMARK    1  A    between atoms: C1_1  and  C2_2 
REMARK    2  A    between atoms: C6_6  and  O1_8 
REMARK    3  A    between atoms: O1_8  and  C7_9 
ROOT
ATOM      1  C2  <0> d          -1.239   3.310   0.031  0.00  0.00     0.072 A 
ATOM      2  C3  <0> d          -0.087   4.075   0.024  0.00  0.00     0.140 A 
ATOM      3  C4  <0> d           1.150   3.440   0.009  0.00  0.00    -0.040 A 
ATOM      4  C5  <0> d           1.181   2.056   0.002  0.00  0.00    -0.029 A 
ATOM      5  C6  <0> d          -0.016   1.353   0.009  0.00  0.00     0.164 A 
ATOM      6  N1  <0> d          -1.174   1.992   0.018  0.00  0.00    -0.227 NA
ATOM      7  F1  <0> d          -0.162   5.424   0.031  0.00  0.00    -0.204 F 
ATOM      8  H4  <0> d           2.065   4.014   0.004  0.00  0.00     0.088 H 
ATOM      9  H5  <0> d           2.124   1.531  -0.009  0.00  0.00     0.090 H 
ENDROOT
BRANCH   5  10
ATOM     10  O1  <0> d           0.002  -0.004   0.002  0.00  0.00    -0.339 OA
BRANCH  10  11
ATOM     11  C7  <0> d          -1.262  -0.670   0.011  0.00  0.00     0.012 C 
ATOM     12  H6  <0> d          -1.105  -1.749   0.003  0.00  0.00     0.067 H 
ATOM     13  H7  <0> d          -1.815  -0.390   0.907  0.00  0.00     0.067 H 
ATOM     14  H8  <0> d          -1.832  -0.380  -0.873  0.00  0.00     0.067 H 
ENDBRANCH  10  11
ENDBRANCH   5  10
BRANCH   1  15
ATOM     15  C1  <0> d          -2.583   3.989   0.047  0.00  0.00    -0.033 C 
ATOM     16  H1  <0> d          -2.917   4.158  -0.977  0.00  0.00     0.035 H 
ATOM     17  H2  <0> d          -3.304   3.356   0.564  0.00  0.00     0.035 H 
ATOM     18  H3  <0> d          -2.502   4.945   0.565  0.00  0.00     0.035 H 
ENDBRANCH   1  15
TORSDOF 3
