REMARK  1 active torsions:
REMARK  status: ('A' for Active; 'I' for Inactive)
REMARK    1  A    between atoms: C1_1  and  C2_2 
ROOT
ATOM      1  C2  <0> d           1.206  -0.695  -0.013  0.00  0.00    -0.061 A 
ATOM      2  C3  <0> d           0.002  -0.004   0.002  0.00  0.00    -0.075 A 
ATOM      3  C4  <0> d          -0.017   1.373   0.010  0.00  0.00    -0.056 A 
ATOM      4  C5  <0> d           1.180   2.084   0.002  0.00  0.00     0.043 A 
ATOM      5  C6  <0> d           2.396   1.383  -0.014  0.00  0.00     0.013 A 
ATOM      6  C7  <0> d           2.400  -0.010  -0.021  0.00  0.00    -0.064 A 
ATOM      7  C8  <0> d           3.454   2.410  -0.018  0.00  0.00     0.072 A 
ATOM      8  C9  <0> d           2.822   3.617  -0.006  0.00  0.00    -0.002 A 
ATOM      9  N1  <0> d           1.478   3.431   0.006  0.00  0.00    -0.364 N 
ATOM     10  H1  <0> d           0.666   4.173   0.017  0.00  0.00     0.165 HD
ATOM     11  C10 <0> d           4.868   2.184  -0.033  0.00  0.00     0.102 C 
ATOM     12  N2  <0> d           5.990   2.004  -0.044  0.00  0.00    -0.191 NA
ATOM     13  H5  <0> d          -0.929  -0.552   0.008  0.00  0.00     0.084 H 
ATOM     14  H6  <0> d          -0.959   1.901   0.017  0.00  0.00     0.087 H 
ATOM     15  H7  <0> d           3.336  -0.550  -0.033  0.00  0.00     0.085 H 
ATOM     16  H8  <0> d           3.316   4.578  -0.006  0.00  0.00     0.113 H 
ENDROOT
BRANCH   1  17
ATOM     17  C1  <0> d           1.205  -2.202  -0.020  0.00  0.00    -0.051 C 
ATOM     18  H2  <0> d           0.168  -2.568  -0.012  0.00  0.00     0.033 H 
ATOM     19  H3  <0> d           1.732  -2.573   0.871  0.00  0.00     0.033 H 
ATOM     20  H4  <0> d           1.715  -2.564  -0.925  0.00  0.00     0.033 H 
ENDBRANCH   1  17
TORSDOF 1
