REMARK  3 active torsions:
REMARK  status: ('A' for Active; 'I' for Inactive)
REMARK    1  A    between atoms: C1_1  and  S1_2 
REMARK    2  A    between atoms: S1_2  and  C2_3 
REMARK    3  A    between atoms: C4_5  and  N3_9 
ROOT
ATOM      1  C2  <0> d           1.187   1.792   0.000  0.00  0.00     0.023 A 
ATOM      2  C3  <0> d           1.114   3.185   0.008  0.00  0.00    -0.020 A 
ATOM      3  C4  <0> d          -0.148   3.769   0.023  0.00  0.00     0.144 A 
ATOM      4  N1  <0> d          -1.230   3.001   0.029  0.00  0.00    -0.133 NA
ATOM      5  N2  <0> d          -1.161   1.720   0.017  0.00  0.00    -0.159 NA
ATOM      6  C5  <0> d          -0.013   1.076   0.008  0.00  0.00     0.040 A 
ATOM      7  H4  <0> d           2.009   3.790   0.003  0.00  0.00     0.091 H 
ATOM      8  H5  <0> d           0.002  -0.004   0.002  0.00  0.00     0.119 H 
ENDROOT
BRANCH   1   9
ATOM      9  S1  <0> d           2.741   0.962  -0.019  0.00  0.00    -0.133 SA
BRANCH   9  10
ATOM     10  C1  <0> d           2.299  -0.797  -0.024  0.00  0.00    -0.030 C 
ATOM     11  H1  <0> d           3.216  -1.405  -0.036  0.00  0.00     0.042 H 
ATOM     12  H2  <0> d           1.699  -1.022  -0.918  0.00  0.00     0.042 H 
ATOM     13  H3  <0> d           1.716  -1.031   0.878  0.00  0.00     0.042 H 
ENDBRANCH   9  10
ENDBRANCH   1   9
BRANCH   3  14
ATOM     14  N3  <0> d          -0.276   5.154   0.031  0.00  0.00    -0.383 N 
ATOM     15  H6  <0> d          -1.275   5.614   0.043  0.00  0.00     0.157 HD
ATOM     16  H7  <0> d           0.622   5.789   0.026  0.00  0.00     0.157 HD
ENDBRANCH   3  14
TORSDOF 3
