REMARK  2 active torsions:
REMARK  status: ('A' for Active; 'I' for Inactive)
REMARK    1  A    between atoms: C3_3  and  C7_10 
REMARK    2  A    between atoms: C5_6  and  C6_8 
ROOT
ATOM      1  C1  <0> d          -0.776   1.750   1.194  0.00  0.00    -0.060 C 
ATOM      2  C2  <0> d          -1.074   3.198   0.681  0.00  0.00    -0.059 C 
ATOM      3  C3  <0> d          -0.450   3.251  -0.747  0.00  0.00    -0.033 C 
ATOM      4  H1  <0> d          -0.815   4.045  -1.397  0.00  0.00     0.043 H 
ATOM      5  C4  <0> d          -0.694   1.776  -1.226  0.00  0.00    -0.056 C 
ATOM      6  C5  <0> d          -0.013   1.086   0.008  0.00  0.00    -0.040 C 
ATOM      7  H2  <0> d           0.002  -0.004   0.002  0.00  0.00     0.041 H 
ATOM      8  H5  <0> d          -1.700   1.210   1.401  0.00  0.00     0.033 H 
ATOM      9  H6  <0> d          -0.146   1.780   2.083  0.00  0.00     0.033 H 
ATOM     10  H7  <0> d          -0.597   3.931   1.331  0.00  0.00     0.033 H 
ATOM     11  H8  <0> d          -2.148   3.376   0.633  0.00  0.00     0.033 H 
ATOM     12  H9  <0> d          -0.164   1.567  -2.155  0.00  0.00     0.034 H 
ATOM     13  H10 <0> d          -1.753   1.528  -1.300  0.00  0.00     0.034 H 
ENDROOT
BRANCH   6  14
ATOM     14  C6  <0> d           1.380   1.785  -0.002  0.00  0.00     0.047 A 
ATOM     15  H3  <0> d           1.962   1.684   0.915  0.00  0.00     0.058 H 
ATOM     16  C8  <0> d           2.115   1.583  -1.311  0.00  0.00     0.224 A 
ATOM     17  N1  <0> d           1.839   2.849  -1.714  0.00  0.00    -0.355 N 
ATOM     18  O1  <0> d           2.714   0.652  -1.805  0.00  0.00    -0.273 OA
ATOM     19  C7  <0> d           1.089   3.225  -0.503  0.00  0.00     0.028 A 
ATOM     20  H11 <0> d           2.060   3.339  -2.522  0.00  0.00     0.162 HD
ATOM     21  H4  <0> d           1.493   4.049   0.085  0.00  0.00     0.074 H 
BRANCH  19  22
ENDBRANCH  19  22
ENDBRANCH   6  14
TORSDOF 2
