REMARK  0 active torsions:
REMARK  status: ('A' for Active; 'I' for Inactive)
ROOT
ATOM      1  C1  <0> d           2.723   3.989  -0.002  0.00  0.00    -0.081 A 
ATOM      2  C2  <0> d           1.454   3.466   0.007  0.00  0.00    -0.072 A 
ATOM      3  C3  <0> d           1.244   2.067   0.001  0.00  0.00    -0.017 A 
ATOM      4  C4  <0> d          -0.016   1.336   0.009  0.00  0.00    -0.065 A 
ATOM      5  C5  <0> d           0.002  -0.004   0.002  0.00  0.00    -0.043 A 
ATOM      6  S1  <0> d           1.741  -0.397  -0.017  0.00  0.00    -0.100 SA
ATOM      7  C6  <0> d           2.395   1.252  -0.014  0.00  0.00     0.035 A 
ATOM      8  C7  <0> d           3.680   1.788  -0.023  0.00  0.00     0.062 A 
ATOM      9  C8  <0> d           3.842   3.175  -0.017  0.00  0.00    -0.061 A 
ATOM     10  C9  <0> d           4.823   0.926  -0.039  0.00  0.00     0.101 C 
ATOM     11  N1  <0> d           5.730   0.242  -0.052  0.00  0.00    -0.191 NA
ATOM     12  H1  <0> d           2.851   5.061   0.003  0.00  0.00     0.083 H 
ATOM     13  H2  <0> d           0.604   4.132   0.019  0.00  0.00     0.084 H 
ATOM     14  H3  <0> d          -0.956   1.869   0.017  0.00  0.00     0.085 H 
ATOM     15  H4  <0> d          -0.837  -0.684   0.007  0.00  0.00     0.095 H 
ATOM     16  H5  <0> d           4.831   3.609  -0.023  0.00  0.00     0.085 H 
ENDROOT
TORSDOF 0
