REMARK  3 active torsions:
REMARK  status: ('A' for Active; 'I' for Inactive)
REMARK    1  A    between atoms: C1_1  and  C2_2 
REMARK    2  A    between atoms: C5_5  and  C8_8 
REMARK    3  A    between atoms: C8_8  and  C9_9 
ROOT
ATOM      1  C2  <0> d          -4.539  -0.879   0.019  0.00  0.00    -0.062 A 
ATOM      2  C3  <0> d          -4.013  -0.430   1.216  0.00  0.00    -0.077 A 
ATOM      3  C4  <0> d          -2.975   0.482   1.216  0.00  0.00    -0.076 A 
ATOM      4  C5  <0> d          -2.462   0.945   0.019  0.00  0.00    -0.048 A 
ATOM      5  C6  <0> d          -2.990   0.499  -1.178  0.00  0.00    -0.076 A 
ATOM      6  C7  <0> d          -4.026  -0.416  -1.178  0.00  0.00    -0.077 A 
ATOM      7  H4  <0> d          -4.414  -0.792   2.151  0.00  0.00     0.084 H 
ATOM      8  H5  <0> d          -2.565   0.833   2.151  0.00  0.00     0.084 H 
ATOM      9  H6  <0> d          -2.592   0.864  -2.114  0.00  0.00     0.084 H 
ATOM     10  H7  <0> d          -4.436  -0.767  -2.114  0.00  0.00     0.084 H 
ENDROOT
BRANCH   4  11
ATOM     11  C8  <0> d          -1.329   1.940   0.019  0.00  0.00     0.039 C 
ATOM     12  H8  <0> d          -1.391   2.561   0.913  0.00  0.00     0.056 H 
ATOM     13  H9  <0> d          -1.400   2.570  -0.867  0.00  0.00     0.056 H 
BRANCH  11  14
ATOM     14  C9  <0> d          -0.014   1.204   0.009  0.00  0.00     0.176 C 
ATOM     15  O1  <0> d           0.002  -0.004   0.002  0.00  0.00    -0.648 OA
ATOM     16  O2  <0> d           1.139   1.891   0.001  0.00  0.00    -0.648 OA
ENDBRANCH  11  14
ENDBRANCH   4  11
BRANCH   1  17
ATOM     17  C1  <0> d          -5.671  -1.874   0.019  0.00  0.00    -0.051 C 
ATOM     18  H1  <0> d          -6.622  -1.342   0.027  0.00  0.00     0.033 H 
ATOM     19  H2  <0> d          -5.609  -2.495  -0.875  0.00  0.00     0.033 H 
ATOM     20  H3  <0> d          -5.600  -2.505   0.905  0.00  0.00     0.033 H 
ENDBRANCH   1  17
TORSDOF 3
