REMARK  7 active torsions:
REMARK  status: ('A' for Active; 'I' for Inactive)
REMARK    1  A    between atoms: C1_1  and  C2_2 
REMARK    2  A    between atoms: C2_2  and  O1_3 
REMARK    3  A    between atoms: O1_3  and  C3_4 
REMARK    4  A    between atoms: C3_4  and  C4_6 
REMARK    5  A    between atoms: C4_6  and  C5_7 
REMARK    6  A    between atoms: C5_7  and  C6_9 
REMARK    7  A    between atoms: C5_7  and  O3_10 
ROOT
ATOM      1  C4  <0> d          -1.293  -0.775   0.010  0.00  0.00     0.039 C 
ATOM      2  H7  <0> d          -1.859  -0.524   0.907  0.00  0.00     0.051 H 
ATOM      3  H8  <0> d          -1.876  -0.515  -0.873  0.00  0.00     0.051 H 
ENDROOT
BRANCH   1   4
ATOM      4  C3  <0> d           0.002  -0.004   0.002  0.00  0.00     0.261 C 
ATOM      5  O2  <0> d           1.056  -0.594  -0.011  0.00  0.00    -0.265 OA
BRANCH   4   6
ATOM      6  O1  <0> d          -0.016   1.338   0.009  0.00  0.00    -0.322 OA
BRANCH   6   7
ATOM      7  C2  <0> d           1.268   2.015   0.001  0.00  0.00     0.025 C 
ATOM      8  H5  <0> d           1.838   1.725   0.884  0.00  0.00     0.074 H 
ATOM      9  H6  <0> d           1.821   1.734  -0.896  0.00  0.00     0.074 H 
BRANCH   7  10
ATOM     10  C1  <0> d           1.048   3.529   0.011  0.00  0.00    -0.056 C 
ATOM     11  H2  <0> d           0.478   3.819  -0.872  0.00  0.00     0.030 H 
ATOM     12  H3  <0> d           0.495   3.809   0.908  0.00  0.00     0.030 H 
ATOM     13  H4  <0> d           2.012   4.037   0.004  0.00  0.00     0.030 H 
ENDBRANCH   7  10
ENDBRANCH   6   7
ENDBRANCH   4   6
ENDBRANCH   1   4
BRANCH   1  14
ATOM     14  C5  <0> d          -0.993  -2.276  -0.001  0.00  0.00     0.040 C 
ATOM     15  H1  <0> d          -0.335  -2.521   0.834  0.00  0.00     0.083 H 
BRANCH  14  16
ATOM     16  C6  <0> d          -2.301  -3.058   0.133  0.00  0.00    -0.052 C 
ATOM     17  H9  <0> d          -2.087  -4.127   0.126  0.00  0.00     0.030 H 
ATOM     18  H10 <0> d          -2.789  -2.792   1.071  0.00  0.00     0.030 H 
ATOM     19  H11 <0> d          -2.958  -2.813  -0.701  0.00  0.00     0.030 H 
ENDBRANCH  14  16
BRANCH  14  20
ATOM     20  O3  <0> d          -0.353  -2.624  -1.230  0.00  0.00    -0.395 OA
ATOM     21  H12 <0> d          -0.133  -3.563  -1.306  0.00  0.00     0.210 HD
ENDBRANCH  14  20
ENDBRANCH   1  14
TORSDOF 7
