REMARK  4 active torsions:
REMARK  status: ('A' for Active; 'I' for Inactive)
REMARK    1  A    between atoms: C1_1  and  C2_2 
REMARK    2  A    between atoms: C2_2  and  C3_4 
REMARK    3  A    between atoms: C2_2  and  O1_12 
REMARK    4  A    between atoms: C4_5  and  C5_6 
ROOT
ATOM      1  C3  <0> d           1.401   1.607  -0.003  0.00  0.00    -0.074 C 
ATOM      2  C4  <0> d           2.421   0.760  -0.017  0.00  0.00    -0.056 C 
ATOM      3  H5  <0> d           1.584   2.672   0.001  0.00  0.00     0.080 H 
ATOM      4  H6  <0> d           2.238  -0.305  -0.021  0.00  0.00     0.086 H 
ENDROOT
BRANCH   2   5
ATOM      5  C5  <0> d           3.807   1.271  -0.028  0.00  0.00     0.056 A 
ATOM      6  N1  <0> d           4.026   2.581  -0.022  0.00  0.00    -0.261 NA
ATOM      7  C9  <0> d           5.246   3.076  -0.031  0.00  0.00     0.003 A 
ATOM      8  C8  <0> d           6.351   2.245  -0.046  0.00  0.00    -0.066 A 
ATOM      9  H10 <0> d           5.386   4.147  -0.027  0.00  0.00     0.114 H 
ATOM     10  C7  <0> d           6.168   0.869  -0.051  0.00  0.00    -0.079 A 
ATOM     11  H9  <0> d           7.347   2.662  -0.053  0.00  0.00     0.085 H 
ATOM     12  C6  <0> d           4.876   0.374  -0.037  0.00  0.00    -0.055 A 
ATOM     13  H8  <0> d           7.015   0.199  -0.062  0.00  0.00     0.083 H 
ATOM     14  H7  <0> d           4.697  -0.691  -0.036  0.00  0.00     0.087 H 
ENDBRANCH   2   5
BRANCH   1  15
ATOM     15  C2  <0> d          -0.013   1.086   0.008  0.00  0.00     0.048 C 
ATOM     16  H1  <0> d           0.002  -0.004   0.002  0.00  0.00     0.088 H 
BRANCH  15  17
ATOM     17  C1  <0> d          -0.753   1.593  -1.232  0.00  0.00    -0.049 C 
ATOM     18  H2  <0> d          -0.767   2.683  -1.226  0.00  0.00     0.031 H 
ATOM     19  H3  <0> d          -0.242   1.241  -2.128  0.00  0.00     0.031 H 
ATOM     20  H4  <0> d          -1.775   1.215  -1.224  0.00  0.00     0.031 H 
ENDBRANCH  15  17
BRANCH  15  21
ATOM     21  O1  <0> d          -0.682   1.547   1.184  0.00  0.00    -0.392 OA
ATOM     22  H11 <0> d          -1.599   1.248   1.257  0.00  0.00     0.210 HD
ENDBRANCH  15  21
ENDBRANCH   1  15
TORSDOF 4
