REMARK  2 active torsions:
REMARK  status: ('A' for Active; 'I' for Inactive)
REMARK    1  A    between atoms: C1_1  and  C2_2 
REMARK    2  A    between atoms: C8_8  and  C11_12 
ROOT
ATOM      1  C2  <0> d           0.077  -2.781  -0.015  0.00  0.00    -0.061 A 
ATOM      2  C3  <0> d          -1.142  -2.106   0.001  0.00  0.00    -0.075 A 
ATOM      3  C4  <0> d          -1.192  -0.746   0.009  0.00  0.00    -0.054 A 
ATOM      4  C5  <0> d           0.002  -0.004   0.002  0.00  0.00     0.067 A 
ATOM      5  C6  <0> d           1.241  -0.692  -0.013  0.00  0.00    -0.001 A 
ATOM      6  C7  <0> d           1.254  -2.097  -0.022  0.00  0.00    -0.065 A 
ATOM      7  C8  <0> d           2.435   0.052  -0.020  0.00  0.00    -0.048 A 
ATOM      8  C9  <0> d           2.345   1.415  -0.012  0.00  0.00    -0.059 A 
ATOM      9  C10 <0> d           1.095   2.029   0.003  0.00  0.00     0.003 A 
ATOM     10  N1  <0> d          -0.016   1.332   0.009  0.00  0.00    -0.260 NA
ATOM     11  H4  <0> d          -2.062  -2.671   0.006  0.00  0.00     0.084 H 
ATOM     12  H5  <0> d          -2.146  -0.239   0.020  0.00  0.00     0.087 H 
ATOM     13  H6  <0> d           2.193  -2.631  -0.035  0.00  0.00     0.085 H 
ATOM     14  H7  <0> d           3.242   2.016  -0.017  0.00  0.00     0.086 H 
ATOM     15  H8  <0> d           1.039   3.107   0.009  0.00  0.00     0.114 H 
ENDROOT
BRANCH   1  16
ATOM     16  C1  <0> d           0.093  -4.288  -0.024  0.00  0.00    -0.051 C 
ATOM     17  H1  <0> d           0.087  -4.645  -1.054  0.00  0.00     0.033 H 
ATOM     18  H2  <0> d           0.992  -4.645   0.479  0.00  0.00     0.033 H 
ATOM     19  H3  <0> d          -0.788  -4.663   0.496  0.00  0.00     0.033 H 
ENDBRANCH   1  16
BRANCH   7  20
ATOM     20  C11 <0> d           3.776  -0.635  -0.036  0.00  0.00    -0.050 C 
ATOM     21  H9  <0> d           4.090  -0.796  -1.068  0.00  0.00     0.033 H 
ATOM     22  H10 <0> d           4.510  -0.012   0.474  0.00  0.00     0.033 H 
ATOM     23  H11 <0> d           3.698  -1.596   0.473  0.00  0.00     0.033 H 
ENDBRANCH   7  20
TORSDOF 2
