REMARK  1 active torsions:
REMARK  status: ('A' for Active; 'I' for Inactive)
REMARK    1  A    between atoms: C1_1  and  C2_2 
ROOT
ATOM      1  C2  <0> d          -0.054   4.199   0.025  0.00  0.00    -0.059 A 
ATOM      2  C3  <0> d           1.155   3.525   0.010  0.00  0.00    -0.076 A 
ATOM      3  C4  <0> d           1.181   2.146   0.002  0.00  0.00    -0.059 A 
ATOM      4  C5  <0> d          -0.017   1.428   0.010  0.00  0.00     0.083 A 
ATOM      5  C6  <0> d          -1.236   2.114   0.019  0.00  0.00     0.137 A 
ATOM      6  C7  <0> d          -1.245   3.497   0.032  0.00  0.00    -0.038 A 
ATOM      7  F1  <0> d          -2.400   1.429   0.021  0.00  0.00    -0.204 F 
ATOM      8  C8  <0> d           0.002  -0.004   0.002  0.00  0.00     0.102 C 
ATOM      9  N1  <0> d           0.018  -1.140  -0.004  0.00  0.00    -0.191 NA
ATOM     10  H4  <0> d           2.081   4.080   0.004  0.00  0.00     0.084 H 
ATOM     11  H5  <0> d           2.125   1.623  -0.010  0.00  0.00     0.086 H 
ATOM     12  H6  <0> d          -2.185   4.029   0.043  0.00  0.00     0.089 H 
ENDROOT
BRANCH   1  13
ATOM     13  C1  <0> d          -0.072   5.706   0.032  0.00  0.00    -0.051 C 
ATOM     14  H1  <0> d          -0.086   6.074  -0.994  0.00  0.00     0.033 H 
ATOM     15  H2  <0> d          -0.962   6.056   0.556  0.00  0.00     0.033 H 
ATOM     16  H3  <0> d           0.818   6.077   0.539  0.00  0.00     0.033 H 
ENDBRANCH   1  13
TORSDOF 1
