REMARK  3 active torsions:
REMARK  status: ('A' for Active; 'I' for Inactive)
REMARK    1  A    between atoms: C5_5  and  C7_7 
REMARK    2  A    between atoms: C8_8  and  C9_9 
REMARK    3  A    between atoms: C9_9  and  O1_10 
ROOT
ATOM      1  C1  <0> d          -1.245   3.492   0.031  0.00  0.00    -0.081 A 
ATOM      2  C2  <0> d          -0.056   4.198   0.024  0.00  0.00    -0.080 A 
ATOM      3  C3  <0> d           1.154   3.528   0.009  0.00  0.00    -0.044 A 
ATOM      4  C4  <0> d           1.181   2.146   0.002  0.00  0.00     0.135 A 
ATOM      5  C5  <0> d          -0.017   1.428   0.010  0.00  0.00     0.056 A 
ATOM      6  C6  <0> d          -1.233   2.112   0.019  0.00  0.00    -0.062 A 
ATOM      7  F1  <0> d           2.363   1.492  -0.013  0.00  0.00    -0.205 F 
ATOM      8  H1  <0> d          -2.186   4.022   0.041  0.00  0.00     0.083 H 
ATOM      9  H2  <0> d          -0.072   5.278   0.029  0.00  0.00     0.083 H 
ATOM     10  H3  <0> d           2.079   4.086   0.004  0.00  0.00     0.088 H 
ATOM     11  H4  <0> d          -2.163   1.563   0.021  0.00  0.00     0.085 H 
ENDROOT
BRANCH   5  12
ATOM     12  C7  <0> d           0.002  -0.004   0.002  0.00  0.00    -0.062 C 
ATOM     13  C8  <0> d           0.018  -1.178  -0.004  0.00  0.00    -0.075 C 
BRANCH  13  14
ATOM     14  C9  <0> d           0.038  -2.650  -0.013  0.00  0.00     0.071 C 
ATOM     15  H5  <0> d           0.548  -3.001  -0.909  0.00  0.00     0.093 H 
ATOM     16  H6  <0> d           0.565  -3.011   0.871  0.00  0.00     0.093 H 
BRANCH  14  17
ATOM     17  O1  <0> d          -1.303  -3.144  -0.002  0.00  0.00    -0.389 OA
ATOM     18  H7  <0> d          -1.366  -4.109  -0.007  0.00  0.00     0.210 HD
ENDBRANCH  14  17
ENDBRANCH  13  14
ENDBRANCH   5  12
TORSDOF 3
