REMARK  5 active torsions:
REMARK  status: ('A' for Active; 'I' for Inactive)
REMARK    1  A    between atoms: C1_1  and  C2_2 
REMARK    2  A    between atoms: C2_2  and  C3_3 
REMARK    3  A    between atoms: C4_6  and  S1_8 
REMARK    4  A    between atoms: S1_8  and  C5_9 
REMARK    5  A    between atoms: C5_9  and  C6_10 
ROOT
ATOM      1  C3  <0> d           0.000   1.080   2.488  0.00  0.00     0.169 A 
ATOM      2  N1  <0> d           0.970   1.688   3.106  0.00  0.00    -0.126 NA
ATOM      3  N2  <0> d           1.353   0.979   4.108  0.00  0.00    -0.115 NA
ATOM      4  C4  <0> d           0.641  -0.121   4.159  0.00  0.00     0.231 A 
ATOM      5  O1  <0> d          -0.231  -0.080   3.134  0.00  0.00    -0.268 OA
ENDROOT
BRANCH   4   6
ATOM      6  S1  <0> d           0.796  -1.413   5.348  0.00  0.00    -0.083 SA
BRANCH   6   7
ATOM      7  C5  <0> d           2.142  -0.749   6.359  0.00  0.00    -0.019 C 
ATOM      8  H6  <0> d           3.027  -0.609   5.740  0.00  0.00     0.049 H 
ATOM      9  H7  <0> d           1.840   0.209   6.783  0.00  0.00     0.049 H 
BRANCH   7  10
ATOM     10  C6  <0> d           2.461  -1.729   7.490  0.00  0.00    -0.068 C 
ATOM     11  H8  <0> d           2.763  -2.687   7.067  0.00  0.00     0.028 H 
ATOM     12  H9  <0> d           3.271  -1.329   8.100  0.00  0.00     0.028 H 
ATOM     13  H10 <0> d           1.575  -1.869   8.110  0.00  0.00     0.028 H 
ENDBRANCH   7  10
ENDBRANCH   6   7
ENDBRANCH   4   6
BRANCH   1  14
ATOM     14  C2  <0> d          -0.729   1.579   1.267  0.00  0.00    -0.005 C 
ATOM     15  H4  <0> d          -0.744   2.669   1.273  0.00  0.00     0.044 H 
ATOM     16  H5  <0> d          -1.751   1.202   1.275  0.00  0.00     0.044 H 
BRANCH  14  17
ATOM     17  C1  <0> d          -0.013   1.086   0.008  0.00  0.00    -0.069 C 
ATOM     18  H1  <0> d           0.002  -0.004   0.002  0.00  0.00     0.028 H 
ATOM     19  H2  <0> d           1.010   1.463   0.000  0.00  0.00     0.028 H 
ATOM     20  H3  <0> d          -0.540   1.447  -0.875  0.00  0.00     0.028 H 
ENDBRANCH  14  17
ENDBRANCH   1  14
TORSDOF 5
