REMARK  0 active torsions:
REMARK  status: ('A' for Active; 'I' for Inactive)
ROOT
ATOM      1  C1  <0> d          -0.017   1.379   0.010  0.00  0.00     0.021 A 
ATOM      2  C2  <0> d           0.002  -0.004   0.002  0.00  0.00     0.021 A 
ATOM      3  N1  <0> d           1.155  -0.650  -0.013  0.00  0.00    -0.244 NA
ATOM      4  C3  <0> d           2.291   0.025  -0.020  0.00  0.00     0.166 A 
ATOM      5  C4  <0> d           2.272   1.412  -0.012  0.00  0.00     0.166 A 
ATOM      6  N2  <0> d           1.118   2.056   0.002  0.00  0.00    -0.244 NA
ATOM      7 Cl1  <0> d           3.764   2.301  -0.022  0.00  0.00    -0.059 Cl
ATOM      8 Cl2  <0> d           3.806  -0.823  -0.039  0.00  0.00    -0.059 Cl
ATOM      9  H1  <0> d          -0.960   1.906   0.017  0.00  0.00     0.117 H 
ATOM     10  H2  <0> d          -0.926  -0.556   0.008  0.00  0.00     0.117 H 
ENDROOT
TORSDOF 0
