REMARK  4 active torsions:
REMARK  status: ('A' for Active; 'I' for Inactive)
REMARK    1  A    between atoms: C1_1  and  C2_2 
REMARK    2  A    between atoms: C3_3  and  C5_7 
REMARK    3  A    between atoms: C5_7  and  C6_8 
REMARK    4  A    between atoms: C6_8  and  O1_9 
ROOT
ATOM      1  C2  <0> d           2.299   0.023  -0.020  0.00  0.00     0.005 A 
ATOM      2  C3  <0> d           1.135  -0.676  -0.012  0.00  0.00     0.049 A 
ATOM      3  N1  <0> d           0.002  -0.004   0.002  0.00  0.00    -0.257 NA
ATOM      4  C4  <0> d          -0.016   1.309   0.009  0.00  0.00     0.040 A 
ATOM      5  S1  <0> d           1.677   1.698  -0.005  0.00  0.00    -0.086 SA
ATOM      6  H4  <0> d          -0.865   1.976   0.017  0.00  0.00     0.126 H 
ENDROOT
BRANCH   2   7
ATOM      7  C5  <0> d           1.138  -2.183  -0.020  0.00  0.00    -0.004 C 
ATOM      8  H5  <0> d           2.034  -2.546   0.484  0.00  0.00     0.045 H 
ATOM      9  H6  <0> d           0.254  -2.551   0.500  0.00  0.00     0.045 H 
BRANCH   7  10
ATOM     10  C6  <0> d           1.126  -2.685  -1.465  0.00  0.00     0.022 C 
ATOM     11  H7  <0> d           0.230  -2.322  -1.969  0.00  0.00     0.074 H 
ATOM     12  H8  <0> d           2.010  -2.317  -1.985  0.00  0.00     0.074 H 
BRANCH  10  13
ATOM     13  O1  <0> d           1.129  -4.114  -1.472  0.00  0.00    -0.400 OA
ATOM     14  H9  <0> d           1.122  -4.503  -2.358  0.00  0.00     0.209 HD
ENDBRANCH  10  13
ENDBRANCH   7  10
ENDBRANCH   2   7
BRANCH   1  15
ATOM     15  C1  <0> d           3.720  -0.476  -0.036  0.00  0.00    -0.043 C 
ATOM     16  H1  <0> d           4.053  -0.591  -1.067  0.00  0.00     0.034 H 
ATOM     17  H2  <0> d           4.363   0.240   0.476  0.00  0.00     0.034 H 
ATOM     18  H3  <0> d           3.773  -1.439   0.472  0.00  0.00     0.034 H 
ENDBRANCH   1  15
TORSDOF 4
