REMARK  4 active torsions:
REMARK  status: ('A' for Active; 'I' for Inactive)
REMARK    1  A    between atoms: C1_1  and  C2_2 
REMARK    2  A    between atoms: C2_2  and  C3_3 
REMARK    3  A    between atoms: C5_6  and  N2_8 
REMARK    4  A    between atoms: N2_8  and  C6_9 
ROOT
ATOM      1  C3  <0> d           0.002  -0.004   0.002  0.00  0.00     0.003 A 
ATOM      2  C4  <0> d          -0.016   1.350   0.009  0.00  0.00     0.018 A 
ATOM      3  N1  <0> d           1.135   1.995   0.002  0.00  0.00    -0.236 NA
ATOM      4  C5  <0> d           2.282   1.344  -0.013  0.00  0.00     0.166 A 
ATOM      5  S1  <0> d           1.762  -0.313  -0.016  0.00  0.00    -0.056 SA
ATOM      6  H6  <0> d          -0.952   1.890   0.017  0.00  0.00     0.116 H 
ENDROOT
BRANCH   1   7
ATOM      7  C2  <0> d          -1.145  -0.981   0.008  0.00  0.00    -0.037 C 
ATOM      8  H4  <0> d          -0.840  -1.897   0.514  0.00  0.00     0.040 H 
ATOM      9  H5  <0> d          -1.994  -0.542   0.533  0.00  0.00     0.040 H 
BRANCH   7  10
ATOM     10  C1  <0> d          -1.548  -1.304  -1.432  0.00  0.00    -0.072 C 
ATOM     11  H1  <0> d          -2.378  -2.011  -1.427  0.00  0.00     0.028 H 
ATOM     12  H2  <0> d          -1.854  -0.388  -1.938  0.00  0.00     0.028 H 
ATOM     13  H3  <0> d          -0.700  -1.743  -1.957  0.00  0.00     0.028 H 
ENDBRANCH   7  10
ENDBRANCH   1   7
BRANCH   4  14
ATOM     14  N2  <0> d           3.572   1.851  -0.022  0.00  0.00    -0.373 N 
ATOM     15  H7  <0> d           4.331   1.248  -0.033  0.00  0.00     0.161 HD
BRANCH  14  16
ATOM     16  C6  <0> d           3.789   3.300  -0.017  0.00  0.00    -0.019 C 
ATOM     17  H8  <0> d           3.326   3.741  -0.900  0.00  0.00     0.056 H 
ATOM     18  H9  <0> d           3.344   3.731   0.880  0.00  0.00     0.056 H 
ATOM     19  H10 <0> d           4.859   3.507  -0.026  0.00  0.00     0.056 H 
ENDBRANCH  14  16
ENDBRANCH   4  14
TORSDOF 4
