REMARK  3 active torsions:
REMARK  status: ('A' for Active; 'I' for Inactive)
REMARK    1  A    between atoms: C1_1  and  O1_2 
REMARK    2  A    between atoms: O1_2  and  C2_3 
REMARK    3  A    between atoms: C2_3  and  C3_5 
ROOT
ATOM      1  C3  <0> d          -2.209   1.800   0.655  0.00  0.00     0.096 C 
ATOM      2  H1  <0> d          -2.812   0.909   0.830  0.00  0.00     0.088 H 
ATOM      3  C4  <0> d          -0.787   1.610   1.239  0.00  0.00    -0.029 C 
ATOM      4  C5  <0> d          -0.013   1.086   0.008  0.00  0.00     0.011 C 
ATOM      5  C6  <0> d          -0.793   1.611  -1.176  0.00  0.00     0.218 C 
ATOM      6  O3  <0> d          -0.377   1.667  -2.314  0.00  0.00    -0.274 OA
ATOM      7  N1  <0> d          -2.016   2.009  -0.784  0.00  0.00    -0.347 N 
ATOM      8  H5  <0> d          -0.789   0.872   2.042  0.00  0.00     0.037 H 
ATOM      9  H6  <0> d          -0.376   2.559   1.584  0.00  0.00     0.037 H 
ATOM     10  H7  <0> d           0.002  -0.004   0.002  0.00  0.00     0.047 H 
ATOM     11  H8  <0> d           1.003   1.480   0.000  0.00  0.00     0.047 H 
ATOM     12  H9  <0> d          -2.686   2.385  -1.377  0.00  0.00     0.163 HD
ENDROOT
BRANCH   1  13
ATOM     13  C2  <0> d          -2.869   3.005   1.274  0.00  0.00     0.281 C 
ATOM     14  O2  <0> d          -2.856   4.065   0.694  0.00  0.00    -0.263 OA
BRANCH  13  15
ATOM     15  O1  <0> d          -3.471   2.901   2.469  0.00  0.00    -0.325 OA
BRANCH  15  16
ATOM     16  C1  <0> d          -4.086   4.103   3.003  0.00  0.00     0.013 C 
ATOM     17  H2  <0> d          -4.536   3.881   3.971  0.00  0.00     0.067 H 
ATOM     18  H3  <0> d          -3.328   4.877   3.124  0.00  0.00     0.067 H 
ATOM     19  H4  <0> d          -4.857   4.454   2.317  0.00  0.00     0.067 H 
ENDBRANCH  15  16
ENDBRANCH  13  15
ENDBRANCH   1  13
TORSDOF 3
