REMARK  4 active torsions:
REMARK  status: ('A' for Active; 'I' for Inactive)
REMARK    1  A    between atoms: C1_1  and  C2_2 
REMARK    2  A    between atoms: C8_9  and  C9_11 
REMARK    3  A    between atoms: C9_11  and  C10_12 
REMARK    4  A    between atoms: C10_12  and  O1_13 
ROOT
ATOM      1  C2  <0> d          -0.087   2.346  -1.395  0.00  0.00    -0.051 C 
ATOM      2  H1  <0> d           0.515   2.017  -2.241  0.00  0.00     0.040 H 
ATOM      3  C3  <0> d           0.153   3.837  -1.147  0.00  0.00    -0.061 C 
ATOM      4  C4  <0> d           1.645   4.091  -0.927  0.00  0.00    -0.061 C 
ATOM      5  C5  <0> d           2.106   3.362   0.339  0.00  0.00    -0.045 C 
ATOM      6  C6  <0> d           1.734   1.901   0.215  0.00  0.00    -0.085 C 
ATOM      7  C7  <0> d           2.625   0.962   0.416  0.00  0.00    -0.119 C 
ATOM      8  C8  <0> d           0.307   1.552  -0.146  0.00  0.00    -0.028 C 
ATOM      9  H2  <0> d          -0.354   1.812   0.681  0.00  0.00     0.047 H 
ATOM     10  H6  <0> d          -0.402   4.151  -0.263  0.00  0.00     0.033 H 
ATOM     11  H7  <0> d          -0.188   4.407  -2.011  0.00  0.00     0.033 H 
ATOM     12  H8  <0> d           1.819   5.161  -0.815  0.00  0.00     0.033 H 
ATOM     13  H9  <0> d           2.208   3.720  -1.785  0.00  0.00     0.033 H 
ATOM     14  H10 <0> d           1.611   3.793   1.210  0.00  0.00     0.039 H 
ATOM     15  H11 <0> d           3.186   3.458   0.445  0.00  0.00     0.039 H 
ATOM     16  H12 <0> d           2.327  -0.076   0.410  0.00  0.00     0.067 H 
ATOM     17  H13 <0> d           3.659   1.226   0.586  0.00  0.00     0.067 H 
ENDROOT
BRANCH   8  18
ATOM     18  C9  <0> d           0.202   0.053  -0.435  0.00  0.00    -0.038 C 
ATOM     19  H14 <0> d           0.594  -0.509   0.413  0.00  0.00     0.037 H 
ATOM     20  H15 <0> d          -0.842  -0.213  -0.597  0.00  0.00     0.037 H 
BRANCH  18  21
ATOM     21  C10 <0> d           1.014  -0.282  -1.688  0.00  0.00     0.017 C 
ATOM     22  H16 <0> d           0.574   0.218  -2.551  0.00  0.00     0.074 H 
ATOM     23  H17 <0> d           2.042   0.057  -1.557  0.00  0.00     0.074 H 
BRANCH  21  24
ATOM     24  O1  <0> d           1.003  -1.695  -1.899  0.00  0.00    -0.401 OA
ATOM     25  H18 <0> d           1.499  -1.981  -2.678  0.00  0.00     0.209 HD
ENDBRANCH  21  24
ENDBRANCH  18  21
ENDBRANCH   8  18
BRANCH   1  26
ATOM     26  C1  <0> d          -1.568   2.113  -1.702  0.00  0.00    -0.072 C 
ATOM     27  H3  <0> d          -2.171   2.443  -0.856  0.00  0.00     0.028 H 
ATOM     28  H4  <0> d          -1.849   2.678  -2.590  0.00  0.00     0.028 H 
ATOM     29  H5  <0> d          -1.740   1.051  -1.877  0.00  0.00     0.028 H 
ENDBRANCH   1  26
TORSDOF 4
