REMARK  2 active torsions:
REMARK  status: ('A' for Active; 'I' for Inactive)
REMARK    1  A    between atoms: C1_1  and  C2_2 
REMARK    2  A    between atoms: C2_2  and  C3_3 
ROOT
ATOM      1  C3  <0> d          -1.433  -0.534   0.013  0.00  0.00     0.012 C 
ATOM      2  H1  <0> d          -1.985  -0.108   0.851  0.00  0.00     0.072 H 
ATOM      3  C4  <0> d          -1.433  -2.076   0.100  0.00  0.00    -0.038 C 
ATOM      4  C5  <0> d          -1.508  -2.476  -1.392  0.00  0.00     0.011 C 
ATOM      5  C6  <0> d          -2.154  -1.284  -2.064  0.00  0.00     0.217 C 
ATOM      6  O1  <0> d          -2.646  -1.294  -3.172  0.00  0.00    -0.274 OA
ATOM      7  N1  <0> d          -2.103  -0.211  -1.252  0.00  0.00    -0.356 N 
ATOM      8  H7  <0> d          -0.513  -2.441   0.556  0.00  0.00     0.036 H 
ATOM      9  H8  <0> d          -2.306  -2.436   0.644  0.00  0.00     0.036 H 
ATOM     10  H9  <0> d          -0.508  -2.644  -1.792  0.00  0.00     0.047 H 
ATOM     11  H10 <0> d          -2.125  -3.365  -1.518  0.00  0.00     0.047 H 
ATOM     12  H11 <0> d          -2.463   0.662  -1.474  0.00  0.00     0.162 HD
ENDROOT
BRANCH   1  13
ATOM     13  C2  <0> d           0.002  -0.004   0.002  0.00  0.00    -0.050 C 
ATOM     14  H5  <0> d           0.512  -0.356  -0.895  0.00  0.00     0.035 H 
ATOM     15  H6  <0> d           0.529  -0.365   0.885  0.00  0.00     0.035 H 
BRANCH  13  16
ATOM     16  C1  <0> d          -0.019   1.526   0.010  0.00  0.00    -0.075 C 
ATOM     17  H2  <0> d           1.004   1.903   0.003  0.00  0.00     0.027 H 
ATOM     18  H3  <0> d          -0.546   1.887  -0.873  0.00  0.00     0.027 H 
ATOM     19  H4  <0> d          -0.529   1.877   0.907  0.00  0.00     0.027 H 
ENDBRANCH  13  16
ENDBRANCH   1  13
TORSDOF 2
