REMARK  1 active torsions:
REMARK  status: ('A' for Active; 'I' for Inactive)
REMARK    1  A    between atoms: C1_1  and  C2_2 
ROOT
ATOM      1  C2  <0> d           0.036   3.797   0.022  0.00  0.00     0.068 A 
ATOM      2  C3  <0> d          -1.188   3.149   0.030  0.00  0.00     0.140 A 
ATOM      3  C4  <0> d          -1.218   1.761   0.017  0.00  0.00    -0.042 A 
ATOM      4  C5  <0> d          -0.013   1.076   0.008  0.00  0.00    -0.063 A 
ATOM      5  C6  <0> d           1.170   1.791   0.001  0.00  0.00     0.003 A 
ATOM      6  N1  <0> d           1.161   3.110   0.007  0.00  0.00    -0.263 NA
ATOM      7  F1  <0> d          -2.338   3.858   0.044  0.00  0.00    -0.204 F 
ATOM      8  H4  <0> d          -2.157   1.228   0.018  0.00  0.00     0.088 H 
ATOM      9  H5  <0> d           0.002  -0.004   0.002  0.00  0.00     0.085 H 
ATOM     10  H6  <0> d           2.112   1.264  -0.011  0.00  0.00     0.114 H 
ENDROOT
BRANCH   1  11
ATOM     11  C1  <0> d           0.082   5.303   0.029  0.00  0.00    -0.033 C 
ATOM     12  H1  <0> d           0.083   5.671  -0.997  0.00  0.00     0.035 H 
ATOM     13  H2  <0> d          -0.791   5.691   0.553  0.00  0.00     0.035 H 
ATOM     14  H3  <0> d           0.988   5.636   0.536  0.00  0.00     0.035 H 
ENDBRANCH   1  11
TORSDOF 1
