REMARK  4 active torsions:
REMARK  status: ('A' for Active; 'I' for Inactive)
REMARK    1  A    between atoms: C1_1  and  N1_2 
REMARK    2  A    between atoms: N1_2  and  C2_3 
REMARK    3  A    between atoms: C5_6  and  O1_9 
REMARK    4  A    between atoms: O1_9  and  C8_10 
ROOT
ATOM      1  C2  <0> d           1.214  -0.681  -0.013  0.00  0.00     0.027 A 
ATOM      2  C3  <0> d           0.002  -0.004   0.002  0.00  0.00    -0.055 A 
ATOM      3  C4  <0> d          -0.017   1.377   0.010  0.00  0.00    -0.049 A 
ATOM      4  C5  <0> d           1.175   2.087   0.002  0.00  0.00     0.068 A 
ATOM      5  C6  <0> d           2.386   1.411  -0.013  0.00  0.00    -0.049 A 
ATOM      6  C7  <0> d           2.406   0.030  -0.021  0.00  0.00    -0.055 A 
ATOM      7  H5  <0> d          -0.926  -0.557   0.008  0.00  0.00     0.087 H 
ATOM      8  H6  <0> d          -0.959   1.904   0.017  0.00  0.00     0.087 H 
ATOM      9  H7  <0> d           3.313   1.965  -0.019  0.00  0.00     0.087 H 
ATOM     10  H8  <0> d           3.349  -0.496  -0.032  0.00  0.00     0.087 H 
ENDROOT
BRANCH   1  11
ATOM     11  N1  <0> d           1.234  -2.081  -0.021  0.00  0.00    -0.394 N 
ATOM     12  H4  <0> d           0.401  -2.578  -0.015  0.00  0.00     0.159 HD
BRANCH  11  13
ATOM     13  C1  <0> d           2.513  -2.795  -0.037  0.00  0.00    -0.021 C 
ATOM     14  H1  <0> d           2.329  -3.869  -0.040  0.00  0.00     0.056 H 
ATOM     15  H2  <0> d           3.072  -2.519  -0.931  0.00  0.00     0.056 H 
ATOM     16  H3  <0> d           3.089  -2.528   0.849  0.00  0.00     0.056 H 
ENDBRANCH  11  13
ENDBRANCH   1  11
BRANCH   4  17
ATOM     17  O1  <0> d           1.155   3.447   0.009  0.00  0.00    -0.356 OA
BRANCH  17  18
ATOM     18  C8  <0> d           2.419   4.114   0.001  0.00  0.00     0.010 C 
ATOM     19  H9  <0> d           2.261   5.192   0.008  0.00  0.00     0.066 H 
ATOM     20  H10 <0> d           2.989   3.824   0.884  0.00  0.00     0.066 H 
ATOM     21  H11 <0> d           2.972   3.833  -0.896  0.00  0.00     0.066 H 
ENDBRANCH  17  18
ENDBRANCH   4  17
TORSDOF 4
