REMARK  0 active torsions:
REMARK  status: ('A' for Active; 'I' for Inactive)
ROOT
ATOM      1  C1  <0> d          -1.203   1.746   0.017  0.00  0.00    -0.082 A 
ATOM      2  C2  <0> d          -1.229   3.134   0.030  0.00  0.00    -0.080 A 
ATOM      3  C3  <0> d          -0.058   3.860   0.023  0.00  0.00    -0.049 A 
ATOM      4  C4  <0> d           1.165   3.201   0.008  0.00  0.00     0.087 A 
ATOM      5  C5  <0> d           1.186   1.794   0.000  0.00  0.00     0.001 A 
ATOM      6  C6  <0> d          -0.013   1.076   0.008  0.00  0.00    -0.070 A 
ATOM      7  C7  <0> d           2.599   1.418  -0.015  0.00  0.00    -0.027 A 
ATOM      8  C8  <0> d           3.298   2.583  -0.015  0.00  0.00     0.156 A 
ATOM      9  O1  <0> d           2.444   3.627  -0.002  0.00  0.00    -0.299 OA
ATOM     10  C9  <0> d           4.726   2.687  -0.028  0.00  0.00     0.125 C 
ATOM     11  N1  <0> d           5.859   2.770  -0.038  0.00  0.00    -0.189 NA
ATOM     12  H1  <0> d          -2.131   1.192   0.019  0.00  0.00     0.083 H 
ATOM     13  H2  <0> d          -2.178   3.650   0.043  0.00  0.00     0.083 H 
ATOM     14  H3  <0> d          -0.091   4.940   0.029  0.00  0.00     0.087 H 
ATOM     15  H4  <0> d           0.002  -0.004   0.002  0.00  0.00     0.084 H 
ATOM     16  H5  <0> d           3.005   0.417  -0.023  0.00  0.00     0.090 H 
ENDROOT
TORSDOF 0
