REMARK  4 active torsions:
REMARK  status: ('A' for Active; 'I' for Inactive)
REMARK    1  A    between atoms: C1_1  and  C2_2 
REMARK    2  A    between atoms: C2_2  and  C3_3 
REMARK    3  A    between atoms: C3_3  and  C6_6 
REMARK    4  A    between atoms: C4_4  and  C5_5 
ROOT
ATOM      1  C6  <0> d           2.158  -0.621   1.207  0.00  0.00    -0.083 C 
ATOM      2  C7  <0> d           3.328  -0.717   1.194  0.00  0.00    -0.149 C 
ATOM      3  H10 <0> d           4.374  -0.803   1.182  0.00  0.00     0.166 H 
ENDROOT
BRANCH   1   4
ATOM      4  C3  <0> d           0.731  -0.503   1.223  0.00  0.00    -0.010 C 
ATOM      5  C4  <0> d           0.049  -0.835   2.314  0.00  0.00    -0.092 C 
ATOM      6  H6  <0> d           0.572  -1.192   3.189  0.00  0.00     0.078 H 
BRANCH   4   7
ATOM      7  C2  <0> d           0.002  -0.004   0.002  0.00  0.00    -0.037 C 
ATOM      8  H4  <0> d          -1.020  -0.381   0.010  0.00  0.00     0.040 H 
ATOM      9  H5  <0> d           0.512  -0.356  -0.895  0.00  0.00     0.040 H 
BRANCH   7  10
ATOM     10  C1  <0> d          -0.019   1.526   0.010  0.00  0.00    -0.072 C 
ATOM     11  H1  <0> d           1.004   1.903   0.003  0.00  0.00     0.028 H 
ATOM     12  H2  <0> d          -0.546   1.887  -0.873  0.00  0.00     0.028 H 
ATOM     13  H3  <0> d          -0.529   1.877   0.907  0.00  0.00     0.028 H 
ENDBRANCH   7  10
ENDBRANCH   4   7
BRANCH   5  14
ATOM     14  C5  <0> d          -1.452  -0.711   2.331  0.00  0.00    -0.059 C 
ATOM     15  H7  <0> d          -1.734   0.326   2.150  0.00  0.00     0.032 H 
ATOM     16  H8  <0> d          -1.878  -1.344   1.553  0.00  0.00     0.032 H 
ATOM     17  H9  <0> d          -1.832  -1.026   3.304  0.00  0.00     0.032 H 
ENDBRANCH   5  14
ENDBRANCH   1   4
TORSDOF 4
