REMARK  2 active torsions:
REMARK  status: ('A' for Active; 'I' for Inactive)
REMARK    1  A    between atoms: C3_3  and  C5_5 
REMARK    2  A    between atoms: C5_5  and  C6_7 
ROOT
ATOM      1  C6  <0> d           1.903  -1.022   2.955  0.00  0.00     0.070 C 
ATOM      2  C7  <0> d           1.753  -0.738   4.391  0.00  0.00     0.066 C 
ATOM      3  N1  <0> d           1.637  -0.519   5.500  0.00  0.00    -0.197 NA
ATOM      4  H8  <0> d           1.353  -1.929   2.704  0.00  0.00     0.066 H 
ATOM      5  H9  <0> d           2.959  -1.161   2.720  0.00  0.00     0.066 H 
ENDROOT
BRANCH   1   6
ATOM      6  C5  <0> d           1.358   0.133   2.155  0.00  0.00     0.143 C 
ATOM      7  O1  <0> d           0.893   1.093   2.720  0.00  0.00    -0.297 OA
BRANCH   6   8
ATOM      8  C3  <0> d           1.394   0.090   0.649  0.00  0.00     0.005 C 
ATOM      9  C2  <0> d           1.518   1.476  -0.004  0.00  0.00    -0.055 C 
ATOM     10  C1  <0> d          -0.019   1.534   0.011  0.00  0.00    -0.064 C 
ATOM     11  H3  <0> d           1.944   1.450  -1.007  0.00  0.00     0.034 H 
ATOM     12  H4  <0> d           1.989   2.221   0.637  0.00  0.00     0.034 H 
ATOM     13  C4  <0> d           0.002  -0.004   0.002  0.00  0.00    -0.055 C 
ATOM     14  H1  <0> d          -0.431   1.960   0.925  0.00  0.00     0.033 H 
ATOM     15  H2  <0> d          -0.448   1.969  -0.892  0.00  0.00     0.033 H 
ATOM     16  H6  <0> d          -0.751  -0.455   0.649  0.00  0.00     0.034 H 
ATOM     17  H7  <0> d           0.014  -0.435  -0.999  0.00  0.00     0.034 H 
ATOM     18  H5  <0> d           2.105  -0.640   0.262  0.00  0.00     0.051 H 
ENDBRANCH   6   8
ENDBRANCH   1   6
TORSDOF 2
