REMARK  5 active torsions:
REMARK  status: ('A' for Active; 'I' for Inactive)
REMARK    1  A    between atoms: C1_1  and  C2_2 
REMARK    2  A    between atoms: C2_2  and  C3_3 
REMARK    3  A    between atoms: C4_4  and  C5_5 
REMARK    4  A    between atoms: C5_5  and  C6_7 
REMARK    5  A    between atoms: C5_5  and  O1_8 
ROOT
ATOM      1  C3  <0> d           0.018  -1.178  -0.004  0.00  0.00    -0.104 C 
ATOM      2  C4  <0> d           0.002  -0.004   0.002  0.00  0.00    -0.075 C 
ENDROOT
BRANCH   2   3
ATOM      3  C5  <0> d          -0.018   1.468   0.010  0.00  0.00     0.090 C 
ATOM      4  H1  <0> d          -0.545   1.829  -0.873  0.00  0.00     0.102 H 
BRANCH   3   5
ATOM      5  C6  <0> d           1.417   1.997  -0.001  0.00  0.00    -0.043 C 
ATOM      6  H7  <0> d           1.928   1.646  -0.897  0.00  0.00     0.032 H 
ATOM      7  H8  <0> d           1.403   3.087   0.005  0.00  0.00     0.032 H 
ATOM      8  H9  <0> d           1.945   1.636   0.882  0.00  0.00     0.032 H 
ENDBRANCH   3   5
BRANCH   3   9
ATOM      9  O1  <0> d          -0.687   1.929   1.186  0.00  0.00    -0.384 OA
ATOM     10  H10 <0> d          -0.737   2.892   1.258  0.00  0.00     0.211 HD
ENDBRANCH   3   9
ENDBRANCH   2   3
BRANCH   1  11
ATOM     11  C2  <0> d           0.038  -2.650  -0.013  0.00  0.00    -0.012 C 
ATOM     12  H5  <0> d           0.548  -3.001  -0.909  0.00  0.00     0.051 H 
ATOM     13  H6  <0> d           0.565  -3.011   0.871  0.00  0.00     0.051 H 
BRANCH  11  14
ATOM     14  C1  <0> d          -1.397  -3.179  -0.002  0.00  0.00    -0.067 C 
ATOM     15  H2  <0> d          -1.383  -4.269  -0.008  0.00  0.00     0.028 H 
ATOM     16  H3  <0> d          -1.908  -2.828   0.895  0.00  0.00     0.028 H 
ATOM     17  H4  <0> d          -1.925  -2.818  -0.885  0.00  0.00     0.028 H 
ENDBRANCH  11  14
ENDBRANCH   1  11
TORSDOF 5
