REMARK  1 active torsions:
REMARK  status: ('A' for Active; 'I' for Inactive)
REMARK    1  A    between atoms: C1_1  and  N1_2 
ROOT
ATOM      1  N1  <0> d           1.866  -1.552   1.191  0.00  0.00    -0.316 N 
ATOM      2  C2  <0> d           1.338  -0.399   0.634  0.00  0.00     0.028 A 
ATOM      3  C3  <0> d           2.144   0.664   0.613  0.00  0.00     0.011 A 
ATOM      4  S1  <0> d           3.641   0.069   1.365  0.00  0.00    -0.032 SA
ATOM      5  C4  <0> d           3.124  -1.558   1.670  0.00  0.00     0.290 A 
ATOM      6  O1  <0> d           3.741  -2.473   2.187  0.00  0.00    -0.259 OA
ATOM      7  C5  <0> d           1.491   1.868  -0.002  0.00  0.00    -0.033 C 
ATOM      8  C6  <0> d          -0.019   1.538   0.011  0.00  0.00    -0.056 C 
ATOM      9  C7  <0> d           0.002  -0.004   0.002  0.00  0.00    -0.025 C 
ATOM     10  H4  <0> d           1.841   2.010  -1.025  0.00  0.00     0.041 H 
ATOM     11  H5  <0> d           1.690   2.757   0.596  0.00  0.00     0.041 H 
ATOM     12  H6  <0> d          -0.511   1.927  -0.881  0.00  0.00     0.034 H 
ATOM     13  H7  <0> d          -0.494   1.917   0.915  0.00  0.00     0.034 H 
ATOM     14  H8  <0> d          -0.825  -0.396   0.594  0.00  0.00     0.042 H 
ATOM     15  H9  <0> d          -0.056  -0.376  -1.021  0.00  0.00     0.042 H 
ENDROOT
BRANCH   1  16
ATOM     16  C1  <0> d           1.053  -2.768   1.259  0.00  0.00    -0.011 C 
ATOM     17  H1  <0> d           1.202  -3.356   0.353  0.00  0.00     0.057 H 
ATOM     18  H2  <0> d           1.351  -3.357   2.127  0.00  0.00     0.057 H 
ATOM     19  H3  <0> d           0.001  -2.498   1.348  0.00  0.00     0.057 H 
ENDBRANCH   1  16
TORSDOF 1
