REMARK  2 active torsions:
REMARK  status: ('A' for Active; 'I' for Inactive)
REMARK    1  A    between atoms: C1_1  and  O1_2 
REMARK    2  A    between atoms: O1_2  and  C2_3 
ROOT
ATOM      1  C2  <0> d           1.160   3.194   0.008  0.00  0.00     0.091 A 
ATOM      2  C3  <0> d          -0.057   3.857   0.023  0.00  0.00    -0.012 A 
ATOM      3  C4  <0> d          -1.238   3.137   0.031  0.00  0.00     0.119 A 
ATOM      4  C5  <0> d          -1.214   1.749   0.017  0.00  0.00    -0.044 A 
ATOM      5  C6  <0> d          -0.013   1.076   0.008  0.00  0.00    -0.057 A 
ATOM      6  C7  <0> d           1.188   1.792   0.000  0.00  0.00     0.078 A 
ATOM      7  C8  <0> d           2.440   1.097  -0.016  0.00  0.00     0.102 C 
ATOM      8  N1  <0> d           3.433   0.546  -0.029  0.00  0.00    -0.191 NA
ATOM      9  F1  <0> d          -2.422   3.788   0.046  0.00  0.00    -0.206 F 
ATOM     10  H4  <0> d          -0.083   4.936   0.029  0.00  0.00     0.092 H 
ATOM     11  H5  <0> d          -2.141   1.195   0.019  0.00  0.00     0.088 H 
ATOM     12  H6  <0> d           0.002  -0.004   0.002  0.00  0.00     0.086 H 
ENDROOT
BRANCH   1  13
ATOM     13  O1  <0> d           2.319   3.898   0.001  0.00  0.00    -0.354 OA
BRANCH  13  14
ATOM     14  C1  <0> d           2.213   5.324   0.010  0.00  0.00     0.010 C 
ATOM     15  H1  <0> d           3.210   5.763   0.003  0.00  0.00     0.066 H 
ATOM     16  H2  <0> d           1.665   5.652  -0.873  0.00  0.00     0.066 H 
ATOM     17  H3  <0> d           1.681   5.643   0.907  0.00  0.00     0.066 H 
ENDBRANCH  13  14
ENDBRANCH   1  13
TORSDOF 2
