REMARK  4 active torsions:
REMARK  status: ('A' for Active; 'I' for Inactive)
REMARK    1  A    between atoms: C1_1  and  C2_2 
REMARK    2  A    between atoms: C2_2  and  O1_3 
REMARK    3  A    between atoms: O1_3  and  C3_4 
REMARK    4  A    between atoms: C3_4  and  C4_6 
ROOT
ATOM      1  C4  <0> d          -0.962   1.696  -1.037  0.00  0.00     0.043 C 
ATOM      2  C5  <0> d          -0.013   1.086   0.008  0.00  0.00     0.003 C 
ATOM      3  C6  <0> d          -0.928   1.676   1.062  0.00  0.00     0.128 C 
ATOM      4  O3  <0> d          -1.198   1.426   2.212  0.00  0.00    -0.298 OA
ATOM      5  C7  <0> d          -1.358   2.717   0.044  0.00  0.00     0.003 C 
ATOM      6  H6  <0> d          -1.701   1.099  -1.591  0.00  0.00     0.056 H 
ATOM      7  H7  <0> d           0.023  -0.006  -0.123  0.00  0.00     0.045 H 
ATOM      8  H8  <0> d           0.996   1.504  -0.124  0.00  0.00     0.045 H 
ATOM      9  H9  <0> d          -0.758   3.631  -0.077  0.00  0.00     0.045 H 
ATOM     10  H10 <0> d          -2.425   2.962  -0.057  0.00  0.00     0.045 H 
ENDROOT
BRANCH   1  11
ATOM     11  C3  <0> d          -0.250   2.309  -2.216  0.00  0.00     0.263 C 
ATOM     12  O2  <0> d           0.957   2.288  -2.270  0.00  0.00    -0.265 OA
BRANCH  11  13
ATOM     13  O1  <0> d          -0.957   2.879  -3.205  0.00  0.00    -0.322 OA
BRANCH  13  14
ATOM     14  C2  <0> d          -0.205   3.449  -4.308  0.00  0.00     0.025 C 
ATOM     15  H4  <0> d           0.395   2.662  -4.789  0.00  0.00     0.074 H 
ATOM     16  H5  <0> d           0.461   4.238  -3.929  0.00  0.00     0.074 H 
BRANCH  14  17
ATOM     17  C1  <0> d          -1.174   4.048  -5.330  0.00  0.00    -0.056 C 
ATOM     18  H1  <0> d          -0.605   4.480  -6.166  0.00  0.00     0.030 H 
ATOM     19  H2  <0> d          -1.774   4.835  -4.849  0.00  0.00     0.030 H 
ATOM     20  H3  <0> d          -1.840   3.259  -5.709  0.00  0.00     0.030 H 
ENDBRANCH  14  17
ENDBRANCH  13  14
ENDBRANCH  11  13
ENDBRANCH   1  11
TORSDOF 4
