REMARK  4 active torsions:
REMARK  status: ('A' for Active; 'I' for Inactive)
REMARK    1  A    between atoms: C1_1  and  C2_2 
REMARK    2  A    between atoms: C3_3  and  N3_9 
REMARK    3  A    between atoms: C4_4  and  C6_8 
REMARK    4  A    between atoms: N1_5  and  C5_7 
ROOT
ATOM      1  C2  <0> d           2.100   0.651  -0.015  0.00  0.00     0.079 A 
ATOM      2  C3  <0> d           1.272   1.782  -0.001  0.00  0.00     0.076 A 
ATOM      3  C4  <0> d          -0.016   1.355   0.009  0.00  0.00     0.054 A 
ATOM      4  N1  <0> d           0.002  -0.004   0.002  0.00  0.00    -0.276 N 
ATOM      5  N2  <0> d           1.341  -0.415  -0.013  0.00  0.00    -0.175 NA
ENDROOT
BRANCH   1   6
ATOM      6  C1  <0> d           3.607   0.661  -0.028  0.00  0.00    -0.032 C 
ATOM      7  H1  <0> d           3.961   0.669  -1.059  0.00  0.00     0.035 H 
ATOM      8  H2  <0> d           3.969   1.550   0.487  0.00  0.00     0.035 H 
ATOM      9  H3  <0> d           3.981  -0.230   0.478  0.00  0.00     0.035 H 
ENDBRANCH   1   6
BRANCH   2  10
ATOM     10  N3  <0> d           1.701   3.123   0.002  0.00  0.00    -0.396 N 
ATOM     11  H10 <0> d           1.048   3.841   0.012  0.00  0.00     0.156 HD
ATOM     12  H11 <0> d           2.649   3.329  -0.006  0.00  0.00     0.156 HD
ENDBRANCH   2  10
BRANCH   4  13
ATOM     13  C5  <0> d          -1.170  -0.883   0.008  0.00  0.00     0.003 C 
ATOM     14  H4  <0> d          -1.470  -1.095  -1.018  0.00  0.00     0.059 H 
ATOM     15  H5  <0> d          -0.922  -1.815   0.515  0.00  0.00     0.059 H 
ATOM     16  H6  <0> d          -1.990  -0.391   0.532  0.00  0.00     0.059 H 
ENDBRANCH   4  13
BRANCH   3  17
ATOM     17  C6  <0> d          -1.244   2.229   0.020  0.00  0.00    -0.034 C 
ATOM     18  H7  <0> d          -1.535   2.435   1.051  0.00  0.00     0.035 H 
ATOM     19  H8  <0> d          -1.027   3.168  -0.490  0.00  0.00     0.035 H 
ATOM     20  H9  <0> d          -2.059   1.718  -0.492  0.00  0.00     0.035 H 
ENDBRANCH   3  17
TORSDOF 4
