REMARK  4 active torsions:
REMARK  status: ('A' for Active; 'I' for Inactive)
REMARK    1  A    between atoms: C1_1  and  C2_2 
REMARK    2  A    between atoms: C2_2  and  C3_3 
REMARK    3  A    between atoms: C3_3  and  C4_5 
REMARK    4  A    between atoms: C3_3  and  N1_6 
ROOT
ATOM      1  N1  <0> d          -0.018   1.466   0.010  0.00  0.00     0.096 N 
ATOM      2  C5  <0> d           1.350   2.006  -0.000  0.00  0.00     0.133 C 
ATOM      3  C6  <0> d           2.107   1.484   1.224  0.00  0.00     0.044 C 
ATOM      4  O1  <0> d           2.090   0.054   1.216  0.00  0.00    -0.388 OA
ATOM      5  C7  <0> d           0.773  -0.505   1.226  0.00  0.00     0.044 C 
ATOM      6  C8  <0> d           0.002  -0.004   0.002  0.00  0.00     0.133 C 
ATOM      7  H10 <0> d           1.864   1.683  -0.917  0.00  0.00     0.083 H 
ATOM      8  H11 <0> d           1.310   3.104   0.031  0.00  0.00     0.083 H 
ATOM      9  H12 <0> d           3.148   1.840   1.190  0.00  0.00     0.077 H 
ATOM     10  H13 <0> d           1.623   1.854   2.140  0.00  0.00     0.077 H 
ATOM     11  H14 <0> d           0.841  -1.603   1.195  0.00  0.00     0.077 H 
ATOM     12  H15 <0> d           0.251  -0.196   2.143  0.00  0.00     0.077 H 
ATOM     13  H16 <0> d          -1.029  -0.385   0.035  0.00  0.00     0.083 H 
ATOM     14  H17 <0> d           0.495  -0.359  -0.915  0.00  0.00     0.083 H 
ENDROOT
BRANCH   1  15
ATOM     15  C3  <0> d          -0.798   1.988  -1.120  0.00  0.00     0.131 C 
ATOM     16  H1  <0> d          -1.796   1.529  -1.068  0.00  0.00     0.087 H 
BRANCH  15  17
ATOM     17  C2  <0> d          -0.901   3.510  -1.008  0.00  0.00    -0.040 C 
ATOM     18  H5  <0> d          -1.407   3.910  -1.899  0.00  0.00     0.035 H 
ATOM     19  H6  <0> d           0.109   3.942  -0.936  0.00  0.00     0.035 H 
BRANCH  17  20
ATOM     20  C1  <0> d          -1.703   3.878   0.242  0.00  0.00    -0.075 C 
ATOM     21  H2  <0> d          -1.777   4.972   0.322  0.00  0.00     0.027 H 
ATOM     22  H3  <0> d          -1.197   3.478   1.133  0.00  0.00     0.027 H 
ATOM     23  H4  <0> d          -2.712   3.446   0.169  0.00  0.00     0.027 H 
ENDBRANCH  17  20
ENDBRANCH  15  17
BRANCH  15  24
ATOM     24  C4  <0> d          -0.105   1.618  -2.433  0.00  0.00    -0.047 C 
ATOM     25  H7  <0> d          -0.031   0.524  -2.513  0.00  0.00     0.030 H 
ATOM     26  H8  <0> d           0.904   2.056  -2.450  0.00  0.00     0.030 H 
ATOM     27  H9  <0> d          -0.689   2.009  -3.279  0.00  0.00     0.030 H 
ENDBRANCH  15  24
ENDBRANCH   1  15
TORSDOF 4
