REMARK  3 active torsions:
REMARK  status: ('A' for Active; 'I' for Inactive)
REMARK    1  A    between atoms: C1_1  and  N1_2 
REMARK    2  A    between atoms: C2_3  and  C6_9 
REMARK    3  A    between atoms: C6_9  and  C7_10 
ROOT
ATOM      1  N1  <0> d           0.100   1.462   0.001  0.00  0.00    -0.351 N 
ATOM      2  C2  <0> d           0.043  -0.005   0.010  0.00  0.00     0.024 C 
ATOM      3  H1  <0> d          -0.710  -0.349   0.720  0.00  0.00     0.073 H 
ATOM      4  C3  <0> d           1.448  -0.470   0.453  0.00  0.00    -0.038 C 
ATOM      5  C4  <0> d           2.326   0.728   0.022  0.00  0.00     0.011 C 
ATOM      6  C5  <0> d           1.371   1.901   0.002  0.00  0.00     0.219 C 
ATOM      7  O1  <0> d           1.702   3.067  -0.011  0.00  0.00    -0.273 OA
ATOM      8  H5  <0> d           1.488  -0.615   1.532  0.00  0.00     0.036 H 
ATOM      9  H6  <0> d           1.742  -1.378  -0.073  0.00  0.00     0.036 H 
ATOM     10  H7  <0> d           3.122   0.897   0.748  0.00  0.00     0.047 H 
ATOM     11  H8  <0> d           2.745   0.557  -0.969  0.00  0.00     0.047 H 
ENDROOT
BRANCH   2  12
ATOM     12  C6  <0> d          -0.272  -0.531  -1.392  0.00  0.00     0.035 C 
ATOM     13  H9  <0> d          -1.182  -0.059  -1.762  0.00  0.00     0.052 H 
ATOM     14  H10 <0> d           0.556  -0.297  -2.062  0.00  0.00     0.052 H 
BRANCH  12  15
ATOM     15  C7  <0> d          -0.467  -2.024  -1.337  0.00  0.00     0.174 C 
ATOM     16  O2  <0> d          -0.468  -2.594  -0.271  0.00  0.00    -0.648 OA
ATOM     17  O3  <0> d          -0.640  -2.721  -2.471  0.00  0.00    -0.648 OA
ENDBRANCH  12  15
ENDBRANCH   2  12
BRANCH   1  18
ATOM     18  C1  <0> d          -1.076   2.335  -0.013  0.00  0.00    -0.016 C 
ATOM     19  H2  <0> d          -1.428   2.487   1.007  0.00  0.00     0.056 H 
ATOM     20  H3  <0> d          -0.810   3.296  -0.453  0.00  0.00     0.056 H 
ATOM     21  H4  <0> d          -1.866   1.871  -0.605  0.00  0.00     0.056 H 
ENDBRANCH   1  18
TORSDOF 3
