REMARK  0 active torsions:
REMARK  status: ('A' for Active; 'I' for Inactive)
ROOT
ATOM      1  C1  <0> d           2.383   0.084  -0.022  0.00  0.00    -0.065 A 
ATOM      2  C2  <0> d           1.227  -0.674  -0.014  0.00  0.00    -0.066 A 
ATOM      3  C3  <0> d           0.002  -0.004   0.002  0.00  0.00     0.033 A 
ATOM      4  C4  <0> d          -1.398  -0.433   0.014  0.00  0.00     0.063 A 
ATOM      5  C5  <0> d          -2.147   0.682   0.028  0.00  0.00     0.001 A 
ATOM      6  N1  <0> d          -1.336   1.788   0.030  0.00  0.00    -0.348 N 
ATOM      7  H1  <0> d          -1.649   2.706   0.039  0.00  0.00     0.167 HD
ATOM      8  C6  <0> d          -0.017   1.404   0.010  0.00  0.00     0.139 A 
ATOM      9  N2  <0> d           1.124   2.080   0.003  0.00  0.00    -0.242 NA
ATOM     10  C7  <0> d           2.289   1.468  -0.013  0.00  0.00     0.004 A 
ATOM     11 Cl1  <0> d          -1.979  -2.068   0.011  0.00  0.00    -0.082 Cl
ATOM     12  H2  <0> d           3.350  -0.396  -0.034  0.00  0.00     0.085 H 
ATOM     13  H3  <0> d           1.270  -1.753  -0.020  0.00  0.00     0.085 H 
ATOM     14  H4  <0> d          -3.226   0.704   0.039  0.00  0.00     0.114 H 
ATOM     15  H5  <0> d           3.194   2.057  -0.020  0.00  0.00     0.114 H 
ENDROOT
TORSDOF 0
