REMARK  2 active torsions:
REMARK  status: ('A' for Active; 'I' for Inactive)
REMARK    1  A    between atoms: C1_1  and  C2_2 
REMARK    2  A    between atoms: C5_6  and  N3_8 
ROOT
ATOM      1  C2  <0> d          -1.238   3.331   0.027  0.00  0.00     0.060 A 
ATOM      2  C3  <0> d          -0.063   4.045   0.016  0.00  0.00     0.022 A 
ATOM      3  C4  <0> d           1.156   3.368   0.009  0.00  0.00     0.191 A 
ATOM      4  N1  <0> d           1.132   2.036   0.002  0.00  0.00    -0.038 NA
ATOM      5  C5  <0> d          -0.017   1.380   0.010  0.00  0.00     0.722 A 
ATOM      6  N2  <0> d          -1.185   2.006   0.019  0.00  0.00    -0.068 NA
ATOM      7  O1  <0> d           2.198   4.235   0.022  0.00  0.00    -0.333 OA
ATOM      8  C6  <0> d           1.744   5.530  -0.409  0.00  0.00     0.032 C 
ATOM      9  C7  <0> d           0.252   5.526  -0.001  0.00  0.00    -0.015 C 
ATOM     10  H6  <0> d           1.849   5.635  -1.489  0.00  0.00     0.075 H 
ATOM     11  H7  <0> d           2.284   6.323   0.108  0.00  0.00     0.075 H 
ATOM     12  H8  <0> d          -0.356   6.045  -0.742  0.00  0.00     0.043 H 
ATOM     13  H9  <0> d           0.116   5.965   0.987  0.00  0.00     0.043 H 
ENDROOT
BRANCH   1  14
ATOM     14  C1  <0> d          -2.566   4.043   0.043  0.00  0.00    -0.034 C 
ATOM     15  H1  <0> d          -2.898   4.217  -0.981  0.00  0.00     0.035 H 
ATOM     16  H2  <0> d          -3.302   3.429   0.564  0.00  0.00     0.035 H 
ATOM     17  H3  <0> d          -2.461   4.998   0.557  0.00  0.00     0.035 H 
ENDBRANCH   1  14
BRANCH   5  18
ATOM     18  N3  <0> d           0.002  -0.004   0.002  0.00  0.00    -0.231 N 
ATOM     19  H4  <0> d           0.849  -0.478  -0.009  0.00  0.00     0.174 HD
ATOM     20  H5  <0> d          -0.831  -0.500   0.007  0.00  0.00     0.174 HD
ENDBRANCH   5  18
TORSDOF 2
