REMARK  3 active torsions:
REMARK  status: ('A' for Active; 'I' for Inactive)
REMARK    1  A    between atoms: C1_1  and  C2_2 
REMARK    2  A    between atoms: C2_2  and  O1_3 
REMARK    3  A    between atoms: O1_3  and  C3_4 
ROOT
ATOM      1  C3  <0> d          -0.013   1.086   0.008  0.00  0.00     0.148 C 
ATOM      2  H1  <0> d           0.002  -0.004   0.002  0.00  0.00     0.136 H 
ATOM      3  C4  <0> d          -0.731   1.567   1.236  0.00  0.00    -0.055 C 
ATOM      4  C5  <0> d          -0.112   2.064   2.266  0.00  0.00    -0.100 C 
ATOM      5  C6  <0> d           1.384   2.209   2.317  0.00  0.00    -0.030 C 
ATOM      6  C7  <0> d           2.022   1.341   1.230  0.00  0.00     0.026 C 
ATOM      7  O2  <0> d           1.329   1.578  -0.002  0.00  0.00    -0.358 OA
ATOM      8  H7  <0> d          -1.808   1.498   1.265  0.00  0.00     0.084 H 
ATOM      9  H8  <0> d          -0.695   2.384   3.118  0.00  0.00     0.076 H 
ATOM     10  H9  <0> d           1.746   1.891   3.295  0.00  0.00     0.042 H 
ATOM     11  H10 <0> d           1.653   3.253   2.153  0.00  0.00     0.042 H 
ATOM     12  H11 <0> d           1.937   0.289   1.502  0.00  0.00     0.074 H 
ATOM     13  H12 <0> d           3.073   1.607   1.117  0.00  0.00     0.074 H 
ENDROOT
BRANCH   1  14
ATOM     14  O1  <0> d          -0.699   1.557  -1.154  0.00  0.00    -0.358 OA
BRANCH  14  15
ATOM     15  C2  <0> d          -0.244   0.971  -2.375  0.00  0.00     0.020 C 
ATOM     16  H5  <0> d           0.814   1.194  -2.513  0.00  0.00     0.073 H 
ATOM     17  H6  <0> d          -0.384  -0.110  -2.334  0.00  0.00     0.073 H 
BRANCH  15  18
ATOM     18  C1  <0> d          -1.044   1.545  -3.546  0.00  0.00    -0.056 C 
ATOM     19  H2  <0> d          -0.903   2.625  -3.587  0.00  0.00     0.030 H 
ATOM     20  H3  <0> d          -0.697   1.098  -4.477  0.00  0.00     0.030 H 
ATOM     21  H4  <0> d          -2.102   1.321  -3.407  0.00  0.00     0.030 H 
ENDBRANCH  15  18
ENDBRANCH  14  15
ENDBRANCH   1  14
TORSDOF 3
