REMARK  2 active torsions:
REMARK  status: ('A' for Active; 'I' for Inactive)
REMARK    1  A    between atoms: C3_3  and  C4_4 
REMARK    2  A    between atoms: C3_3  and  O2_6 
ROOT
ATOM      1  C1  <0> d          -0.019   1.526   0.010  0.00  0.00    -0.023 A 
ATOM      2  C2  <0> d           0.002  -0.004   0.002  0.00  0.00    -0.023 A 
ATOM      3  C3  <0> d           1.317   0.779  -0.006  0.00  0.00     0.145 A 
ATOM      4  H1  <0> d          -0.325   2.030  -0.906  0.00  0.00     0.038 H 
ATOM      5  H2  <0> d          -0.307   2.020   0.938  0.00  0.00     0.038 H 
ATOM      6  H3  <0> d          -0.273  -0.516   0.924  0.00  0.00     0.038 H 
ATOM      7  H4  <0> d          -0.290  -0.506  -0.920  0.00  0.00     0.038 H 
ENDROOT
BRANCH   3   8
ATOM      8  C4  <0> d           2.132   0.783   1.261  0.00  0.00     0.209 C 
ATOM      9  O1  <0> d           1.589   0.939   2.329  0.00  0.00    -0.646 OA
ATOM     10  O3  <0> d           3.462   0.613   1.204  0.00  0.00    -0.646 OA
ENDBRANCH   3   8
BRANCH   3  11
ATOM     11  O2  <0> d           2.067   0.796  -1.222  0.00  0.00    -0.379 OA
ATOM     12  H5  <0> d           2.901   0.309  -1.177  0.00  0.00     0.211 HD
ENDBRANCH   3  11
TORSDOF 2
