REMARK  1 active torsions:
REMARK  status: ('A' for Active; 'I' for Inactive)
REMARK    1  A    between atoms: C7_8  and  N4_12 
ROOT
ATOM      1  C1  <0> d          -2.942   4.271   0.037  0.00  0.00    -0.081 A 
ATOM      2  C2  <0> d          -3.400   2.962   0.031  0.00  0.00    -0.081 A 
ATOM      3  C3  <0> d          -2.507   1.909   0.022  0.00  0.00    -0.053 A 
ATOM      4  C4  <0> d          -1.145   2.161   0.018  0.00  0.00     0.097 A 
ATOM      5  C5  <0> d          -0.675   3.484   0.027  0.00  0.00     0.104 A 
ATOM      6  C6  <0> d          -1.591   4.538   0.042  0.00  0.00    -0.052 A 
ATOM      7  N1  <0> d           0.684   3.429   0.014  0.00  0.00    -0.062 NA
ATOM      8  C7  <0> d           1.076   2.180   0.004  0.00  0.00     0.715 A 
ATOM      9  N2  <0> d          -0.016   1.351   0.009  0.00  0.00    -0.077 N 
ATOM     10  C8  <0> d           0.002  -0.004   0.002  0.00  0.00     0.204 C 
ATOM     11  N3  <0> d           0.018  -1.140  -0.004  0.00  0.00    -0.171 NA
ATOM     12  H1  <0> d          -3.650   5.086   0.044  0.00  0.00     0.083 H 
ATOM     13  H2  <0> d          -4.462   2.765   0.035  0.00  0.00     0.083 H 
ATOM     14  H3  <0> d          -2.870   0.892   0.018  0.00  0.00     0.087 H 
ATOM     15  H4  <0> d          -1.242   5.560   0.044  0.00  0.00     0.087 H 
ENDROOT
BRANCH   8  16
ATOM     16  N4  <0> d           2.389   1.762  -0.012  0.00  0.00    -0.232 N 
ATOM     17  H5  <0> d           2.596   0.815  -0.020  0.00  0.00     0.174 HD
ATOM     18  H6  <0> d           3.106   2.415  -0.015  0.00  0.00     0.174 HD
ENDBRANCH   8  16
TORSDOF 1
