REMARK  3 active torsions:
REMARK  status: ('A' for Active; 'I' for Inactive)
REMARK    1  A    between atoms: C3_3  and  C4_4 
REMARK    2  A    between atoms: C4_4  and  C5_6 
REMARK    3  A    between atoms: C4_4  and  O3_9 
ROOT
ATOM      1  C1  <0> d          -0.019   1.526   0.010  0.00  0.00    -0.059 A 
ATOM      2  C2  <0> d           1.317   0.779  -0.006  0.00  0.00    -0.059 A 
ATOM      3  C3  <0> d           0.002  -0.004   0.002  0.00  0.00    -0.019 A 
ATOM      4  H2  <0> d          -0.307   2.020   0.938  0.00  0.00     0.033 H 
ATOM      5  H3  <0> d          -0.325   2.030  -0.906  0.00  0.00     0.033 H 
ATOM      6  H4  <0> d           1.889   0.792  -0.934  0.00  0.00     0.033 H 
ATOM      7  H5  <0> d           1.906   0.782   0.910  0.00  0.00     0.033 H 
ATOM      8  H6  <0> d          -0.273  -0.516   0.924  0.00  0.00     0.044 H 
ENDROOT
BRANCH   3   9
ATOM      9  C4  <0> d          -0.408  -0.709  -1.292  0.00  0.00     0.122 C 
ATOM     10  H1  <0> d          -1.398  -0.366  -1.595  0.00  0.00     0.100 H 
BRANCH   9  11
ATOM     11  C5  <0> d          -0.442  -2.198  -1.064  0.00  0.00     0.203 C 
ATOM     12  O1  <0> d          -1.251  -2.679  -0.289  0.00  0.00    -0.646 OA
ATOM     13  O2  <0> d           0.341  -2.923  -1.655  0.00  0.00    -0.646 OA
ENDBRANCH   9  11
BRANCH   9  14
ATOM     14  O3  <0> d           0.536  -0.405  -2.321  0.00  0.00    -0.384 OA
ATOM     15  H7  <0> d           1.440  -0.683  -2.119  0.00  0.00     0.210 HD
ENDBRANCH   9  14
ENDBRANCH   3   9
TORSDOF 3
