REMARK  6 active torsions:
REMARK  status: ('A' for Active; 'I' for Inactive)
REMARK    1  A    between atoms: C1_1  and  C2_2 
REMARK    2  A    between atoms: C2_2  and  C3_3 
REMARK    3  A    between atoms: C3_3  and  C4_4 
REMARK    4  A    between atoms: C3_3  and  C6_6 
REMARK    5  A    between atoms: C4_4  and  C5_5 
REMARK    6  A    between atoms: C6_6  and  C7_8 
ROOT
ATOM      1  C7  <0> d           2.461   0.728   0.757  0.00  0.00     0.070 C 
ATOM      2  C8  <0> d           3.759   1.417   0.673  0.00  0.00     0.066 C 
ATOM      3  N1  <0> d           4.761   1.949   0.609  0.00  0.00    -0.197 NA
ATOM      4  H12 <0> d           2.159   0.641   1.811  0.00  0.00     0.066 H 
ATOM      5  H13 <0> d           2.551  -0.277   0.318  0.00  0.00     0.066 H 
ENDROOT
BRANCH   1   6
ATOM      6  C6  <0> d           1.424   1.516  -0.000  0.00  0.00     0.143 C 
ATOM      7  O1  <0> d           1.750   2.492  -0.632  0.00  0.00    -0.297 OA
BRANCH   6   8
ATOM      8  C3  <0> d          -0.020   1.087   0.032  0.00  0.00     0.004 C 
ATOM      9  H6  <0> d          -0.060  -0.008   0.119  0.00  0.00     0.051 H 
BRANCH   8  10
ATOM     10  C2  <0> d          -0.713   1.533  -1.257  0.00  0.00    -0.059 C 
ATOM     11  H4  <0> d          -0.572   2.615  -1.395  0.00  0.00     0.033 H 
ATOM     12  H5  <0> d          -1.788   1.309  -1.192  0.00  0.00     0.033 H 
BRANCH  10  13
ATOM     13  C1  <0> d          -0.108   0.784  -2.446  0.00  0.00    -0.076 C 
ATOM     14  H1  <0> d          -0.606   1.104  -3.373  0.00  0.00     0.027 H 
ATOM     15  H2  <0> d          -0.250  -0.298  -2.309  0.00  0.00     0.027 H 
ATOM     16  H3  <0> d           0.967   1.008  -2.512  0.00  0.00     0.027 H 
ENDBRANCH  10  13
ENDBRANCH   8  10
BRANCH   8  17
ATOM     17  C4  <0> d          -0.717   1.730   1.234  0.00  0.00    -0.059 C 
ATOM     18  H7  <0> d          -0.165   1.483   2.152  0.00  0.00     0.033 H 
ATOM     19  H8  <0> d          -0.740   2.822   1.103  0.00  0.00     0.033 H 
BRANCH  17  20
ATOM     20  C5  <0> d          -2.147   1.198   1.339  0.00  0.00    -0.076 C 
ATOM     21  H9  <0> d          -2.648   1.660   2.202  0.00  0.00     0.027 H 
ATOM     22  H10 <0> d          -2.124   0.106   1.469  0.00  0.00     0.027 H 
ATOM     23  H11 <0> d          -2.699   1.446   0.419  0.00  0.00     0.027 H 
ENDBRANCH  17  20
ENDBRANCH   8  17
ENDBRANCH   6   8
ENDBRANCH   1   6
TORSDOF 6
