REMARK  6 active torsions:
REMARK  status: ('A' for Active; 'I' for Inactive)
REMARK    1  A    between atoms: C1_1  and  C2_2 
REMARK    2  A    between atoms: C2_2  and  C3_3 
REMARK    3  A    between atoms: C3_3  and  C4_4 
REMARK    4  A    between atoms: C4_4  and  C5_5 
REMARK    5  A    between atoms: C6_6  and  C10_12 
REMARK    6  A    between atoms: C8_10  and  C9_11 
ROOT
ATOM      1  C5  <0> d           0.739  -2.004  -1.265  0.00  0.00    -0.029 A 
ATOM      2  C6  <0> d           1.742  -2.828  -0.717  0.00  0.00    -0.038 A 
ATOM      3  C7  <0> d           1.376  -4.108  -0.933  0.00  0.00    -0.017 A 
ATOM      4  N1  <0> d           0.189  -4.104  -1.603  0.00  0.00    -0.368 N 
ATOM      5  H1  <0> d          -0.286  -5.056  -1.884  0.00  0.00     0.165 HD
ATOM      6  C8  <0> d          -0.197  -2.812  -1.804  0.00  0.00     0.011 A 
ATOM      7  H11 <0> d           1.931  -4.984  -0.631  0.00  0.00     0.112 H 
ENDROOT
BRANCH   1   8
ATOM      8  C4  <0> d           0.718  -0.497  -1.257  0.00  0.00    -0.039 C 
ATOM      9  H9  <0> d           0.186  -0.133  -2.148  0.00  0.00     0.040 H 
ATOM     10  H10 <0> d           1.750  -0.117  -1.265  0.00  0.00     0.040 H 
BRANCH   8  11
ATOM     11  C3  <0> d           0.002  -0.004   0.002  0.00  0.00    -0.062 C 
ATOM     12  H7  <0> d           0.534  -0.368   0.893  0.00  0.00     0.033 H 
ATOM     13  H8  <0> d          -1.030  -0.385   0.010  0.00  0.00     0.033 H 
BRANCH  11  14
ATOM     14  C2  <0> d          -0.019   1.526   0.010  0.00  0.00    -0.068 C 
ATOM     15  H5  <0> d          -0.551   1.890  -0.881  0.00  0.00     0.032 H 
ATOM     16  H6  <0> d           1.013   1.907   0.003  0.00  0.00     0.032 H 
BRANCH  14  17
ATOM     17  C1  <0> d          -0.735   2.019   1.269  0.00  0.00    -0.077 C 
ATOM     18  H2  <0> d          -0.750   3.119   1.275  0.00  0.00     0.027 H 
ATOM     19  H3  <0> d          -0.203   1.655   2.160  0.00  0.00     0.027 H 
ATOM     20  H4  <0> d          -1.767   1.638   1.277  0.00  0.00     0.027 H 
ENDBRANCH  14  17
ENDBRANCH  11  14
ENDBRANCH   8  11
ENDBRANCH   1   8
BRANCH   6  21
ATOM     21  C9  <0> d          -1.452  -2.364  -2.507  0.00  0.00    -0.037 C 
ATOM     22  H12 <0> d          -2.021  -3.245  -2.839  0.00  0.00     0.035 H 
ATOM     23  H13 <0> d          -1.185  -1.750  -3.379  0.00  0.00     0.035 H 
ATOM     24  H14 <0> d          -2.068  -1.771  -1.815  0.00  0.00     0.035 H 
ENDBRANCH   6  21
BRANCH   2  25
ATOM     25  C10 <0> d           2.992  -2.364  -0.014  0.00  0.00    -0.049 C 
ATOM     26  H15 <0> d           3.580  -3.237   0.302  0.00  0.00     0.033 H 
ATOM     27  H16 <0> d           2.717  -1.767   0.868  0.00  0.00     0.033 H 
ATOM     28  H17 <0> d           3.591  -1.748  -0.701  0.00  0.00     0.033 H 
ENDBRANCH   2  25
TORSDOF 6
