REMARK  2 active torsions:
REMARK  status: ('A' for Active; 'I' for Inactive)
REMARK    1  A    between atoms: C3_3  and  O2_11 
REMARK    2  A    between atoms: C6_6  and  N1_7 
REMARK       I    between atoms: N1_7  and  C7_8 
REMARK       I    between atoms: C7_8  and  N2_10 
ROOT
ATOM      1  C1  <0> d           0.013  -0.008   0.187  0.00  0.00    -0.054 A 
ATOM      2  C2  <0> d          -0.009   1.373   0.201  0.00  0.00    -0.049 A 
ATOM      3  C3  <0> d           1.167   2.087   0.020  0.00  0.00     0.065 A 
ATOM      4  C4  <0> d           2.365   1.414  -0.174  0.00  0.00    -0.049 A 
ATOM      5  C5  <0> d           2.387   0.034  -0.188  0.00  0.00    -0.054 A 
ATOM      6  C6  <0> d           1.211  -0.682  -0.007  0.00  0.00     0.036 A 
ATOM      7  H1  <0> d          -0.902  -0.564   0.328  0.00  0.00     0.087 H 
ATOM      8  H2  <0> d          -0.942   1.897   0.347  0.00  0.00     0.087 H 
ATOM      9  H3  <0> d           3.279   1.971  -0.315  0.00  0.00     0.087 H 
ATOM     10  H4  <0> d           3.320  -0.490  -0.339  0.00  0.00     0.087 H 
ENDROOT
BRANCH   6  11
ATOM     11  N1  <0> d           1.234  -2.083  -0.021  0.00  0.00    -0.309 N 
ATOM     12  C7  <0> d           0.180  -2.769  -0.507  0.00  0.00     0.318 C 
ATOM     13  O1  <0> d          -0.747  -2.175  -1.022  0.00  0.00    -0.247 OA
ATOM     14  N2  <0> d           0.155  -4.114  -0.422  0.00  0.00    -0.352 N 
ATOM     15  H6  <0> d          -0.704  -4.674  -0.819  0.00  0.00     0.160 HD
ATOM     16  H7  <0> d           0.994  -4.652   0.044  0.00  0.00     0.160 HD
ATOM     17  H5  <0> d           2.111  -2.623   0.366  0.00  0.00     0.170 HD
ENDBRANCH   6  11
BRANCH   3  18
ATOM     18  O2  <0> d           1.145   3.446   0.033  0.00  0.00    -0.361 OA
ATOM     19  H8  <0> d           2.077   4.013  -0.110  0.00  0.00     0.217 HD
ENDBRANCH   3  18
TORSDOF 2
