REMARK  6 active torsions:
REMARK  status: ('A' for Active; 'I' for Inactive)
REMARK    1  A    between atoms: C1_1  and  C2_2 
REMARK    2  A    between atoms: C2_2  and  C3_3 
REMARK    3  A    between atoms: C2_2  and  C4_4 
REMARK    4  A    between atoms: C2_2  and  C5_5 
REMARK    5  A    between atoms: C7_7  and  C8_10 
REMARK    6  A    between atoms: C8_10  and  O2_11 
ROOT
ATOM      1  C2  <0> d           0.002  -0.004   0.002  0.00  0.00     0.000 C 
ENDROOT
BRANCH   1   2
ATOM      2  C1  <0> d          -0.019   1.526   0.010  0.00  0.00    -0.064 C 
ATOM      3  H1  <0> d           1.004   1.903   0.003  0.00  0.00     0.028 H 
ATOM      4  H2  <0> d          -0.546   1.887  -0.873  0.00  0.00     0.028 H 
ATOM      5  H3  <0> d          -0.529   1.877   0.907  0.00  0.00     0.028 H 
ENDBRANCH   1   2
BRANCH   1   6
ATOM      6  C3  <0> d           0.742  -0.511   1.242  0.00  0.00    -0.064 C 
ATOM      7  H4  <0> d           0.232  -0.159   2.138  0.00  0.00     0.028 H 
ATOM      8  H5  <0> d           0.757  -1.601   1.236  0.00  0.00     0.028 H 
ATOM      9  H6  <0> d           1.765  -0.134   1.234  0.00  0.00     0.028 H 
ENDBRANCH   1   6
BRANCH   1  10
ATOM     10  C4  <0> d          -1.433  -0.534   0.013  0.00  0.00    -0.064 C 
ATOM     11  H7  <0> d          -1.960  -0.173  -0.870  0.00  0.00     0.028 H 
ATOM     12  H8  <0> d          -1.419  -1.623   0.007  0.00  0.00     0.028 H 
ATOM     13  H9  <0> d          -1.944  -0.182   0.910  0.00  0.00     0.028 H 
ENDBRANCH   1  10
BRANCH   1  14
ATOM     14  C5  <0> d           0.707  -0.490  -1.238  0.00  0.00     0.088 A 
ATOM     15  O1  <0> d           0.176  -1.267  -2.194  0.00  0.00    -0.217 OA
ATOM     16  N1  <0> d           1.171  -1.487  -3.178  0.00  0.00    -0.131 NA
ATOM     17  C7  <0> d           2.251  -0.864  -2.802  0.00  0.00     0.087 A 
ATOM     18  C6  <0> d           1.984  -0.226  -1.578  0.00  0.00    -0.023 A 
ATOM     19  H10 <0> d           2.680   0.373  -1.009  0.00  0.00     0.090 H 
BRANCH  17  20
ATOM     20  C8  <0> d           3.560  -0.832  -3.549  0.00  0.00     0.059 C 
ATOM     21  H11 <0> d           3.940  -1.847  -3.660  0.00  0.00     0.083 H 
ATOM     22  H12 <0> d           3.405  -0.392  -4.535  0.00  0.00     0.083 H 
BRANCH  20  23
ATOM     23  O2  <0> d           4.505  -0.045  -2.821  0.00  0.00    -0.395 OA
ATOM     24  H13 <0> d           5.372   0.019  -3.244  0.00  0.00     0.209 HD
ENDBRANCH  20  23
ENDBRANCH  17  20
ENDBRANCH   1  14
TORSDOF 6
