REMARK  3 active torsions:
REMARK  status: ('A' for Active; 'I' for Inactive)
REMARK    1  A    between atoms: C1_1  and  C2_2 
REMARK    2  A    between atoms: C2_2  and  N1_3 
REMARK    3  A    between atoms: N1_3  and  C3_4 
ROOT
ATOM      1  C3  <0> d           0.831  -1.834  -1.431  0.00  0.00     0.723 A 
ATOM      2  N2  <0> d           1.454  -2.244  -2.526  0.00  0.00    -0.075 NA
ATOM      3  C4  <0> d           1.607  -3.535  -2.775  0.00  0.00     0.024 A 
ATOM      4  C5  <0> d           1.108  -4.461  -1.874  0.00  0.00    -0.026 A 
ATOM      5  C6  <0> d           0.461  -3.998  -0.737  0.00  0.00     0.146 A 
ATOM      6  N3  <0> d           0.346  -2.693  -0.546  0.00  0.00    -0.051 NA
ATOM      7 Cl1  <0> d          -0.183  -5.116   0.425  0.00  0.00    -0.062 Cl
ATOM      8  H7  <0> d           2.116  -3.862  -3.670  0.00  0.00     0.115 H 
ATOM      9  H8  <0> d           1.220  -5.520  -2.052  0.00  0.00     0.090 H 
ENDROOT
BRANCH   1  10
ATOM     10  N1  <0> d           0.688  -0.476  -1.203  0.00  0.00    -0.223 N 
ATOM     11  H6  <0> d           1.089   0.248  -1.927  0.00  0.00     0.177 HD
BRANCH  10  12
ATOM     12  C2  <0> d           0.002  -0.004   0.002  0.00  0.00     0.006 C 
ATOM     13  H4  <0> d           0.534  -0.368   0.893  0.00  0.00     0.064 H 
ATOM     14  H5  <0> d          -1.030  -0.385   0.010  0.00  0.00     0.064 H 
BRANCH  12  15
ATOM     15  C1  <0> d          -0.019   1.526   0.010  0.00  0.00    -0.061 C 
ATOM     16  H1  <0> d          -0.534   1.881   0.915  0.00  0.00     0.029 H 
ATOM     17  H2  <0> d          -0.551   1.890  -0.881  0.00  0.00     0.029 H 
ATOM     18  H3  <0> d           1.013   1.907   0.003  0.00  0.00     0.029 H 
ENDBRANCH  12  15
ENDBRANCH  10  12
ENDBRANCH   1  10
TORSDOF 3
