REMARK  2 active torsions:
REMARK  status: ('A' for Active; 'I' for Inactive)
REMARK    1  A    between atoms: C2_2  and  C3_3 
REMARK    2  A    between atoms: C3_3  and  C4_4 
ROOT
ATOM      1  C4  <0> d          -0.013   1.086   0.008  0.00  0.00     0.007 C 
ATOM      2  H1  <0> d           0.004   0.086   0.003  0.00  0.00     0.052 H 
ATOM      3  C5  <0> d          -0.738   1.584   1.263  0.00  0.00    -0.055 C 
ATOM      4  C6  <0> d          -2.211   1.162   1.194  0.00  0.00    -0.064 C 
ATOM      5  C7  <0> d          -2.891   1.838   0.002  0.00  0.00    -0.059 C 
ATOM      6  C8  <0> d          -2.243   1.349  -1.297  0.00  0.00    -0.009 C 
ATOM      7  C9  <0> d          -0.752   1.591  -1.212  0.00  0.00     0.131 C 
ATOM      8  O1  <0> d          -0.167   2.172  -2.094  0.00  0.00    -0.298 OA
ATOM      9  H7  <0> d          -0.272   1.151   2.148  0.00  0.00     0.034 H 
ATOM     10  H8  <0> d          -0.673   2.671   1.313  0.00  0.00     0.034 H 
ATOM     11  H9  <0> d          -2.714   1.459   2.115  0.00  0.00     0.033 H 
ATOM     12  H10 <0> d          -2.271   0.080   1.081  0.00  0.00     0.033 H 
ATOM     13  H11 <0> d          -2.776   2.919   0.082  0.00  0.00     0.033 H 
ATOM     14  H12 <0> d          -3.951   1.585  -0.003  0.00  0.00     0.033 H 
ATOM     15  H13 <0> d          -2.627   1.852  -2.071  0.00  0.00     0.044 H 
ATOM     16  H14 <0> d          -2.434   0.284  -1.424  0.00  0.00     0.044 H 
ENDROOT
BRANCH   1  17
ATOM     17  C3  <0> d           1.421   1.619  -0.003  0.00  0.00    -0.041 C 
ATOM     18  H5  <0> d           1.404   2.706  -0.086  0.00  0.00     0.040 H 
ATOM     19  H6  <0> d           1.922   1.334   0.922  0.00  0.00     0.040 H 
BRANCH  17  20
ATOM     20  C2  <0> d           2.165   1.037  -1.177  0.00  0.00    -0.111 C 
ATOM     21  C1  <0> d           2.751   1.830  -2.040  0.00  0.00    -0.125 C 
ATOM     22  H2  <0> d           2.701   2.901  -1.909  0.00  0.00     0.066 H 
ATOM     23  H3  <0> d           3.284   1.412  -2.881  0.00  0.00     0.066 H 
ATOM     24  H4  <0> d           2.215  -0.034  -1.307  0.00  0.00     0.075 H 
ENDBRANCH  17  20
ENDBRANCH   1  17
TORSDOF 2
