REMARK  4 active torsions:
REMARK  status: ('A' for Active; 'I' for Inactive)
REMARK    1  A    between atoms: C1_1  and  C2_2 
REMARK    2  A    between atoms: C2_2  and  C3_3 
REMARK    3  A    between atoms: C2_2  and  C5_5 
REMARK    4  A    between atoms: C3_3  and  C4_4 
ROOT
ATOM      1  C2  <0> d           0.002  -0.004   0.002  0.00  0.00     0.123 C 
ENDROOT
BRANCH   1   2
ATOM      2  C1  <0> d          -0.018   1.503   0.010  0.00  0.00    -0.048 C 
ATOM      3  H1  <0> d           1.004   1.880   0.003  0.00  0.00     0.030 H 
ATOM      4  H2  <0> d          -0.545   1.864  -0.873  0.00  0.00     0.030 H 
ATOM      5  H3  <0> d          -0.529   1.854   0.907  0.00  0.00     0.030 H 
ENDBRANCH   1   2
BRANCH   1   6
ATOM      6  C3  <0> d           0.022  -0.664   1.130  0.00  0.00    -0.159 C 
BRANCH   6   7
ATOM      7  C4  <0> d           0.041  -1.323   2.259  0.00  0.00    -0.010 C 
ATOM      8  H4  <0> d           0.985  -1.583   2.716  0.00  0.00     0.051 H 
ATOM      9  H5  <0> d          -0.886  -1.608   2.733  0.00  0.00     0.051 H 
ENDBRANCH   6   7
ENDBRANCH   1   6
BRANCH   1  10
ATOM     10  C5  <0> d          -0.000  -0.702  -1.221  0.00  0.00     0.195 C 
ATOM     11  O1  <0> d          -0.020  -0.029  -2.372  0.00  0.00    -0.647 OA
ATOM     12  O2  <0> d           0.018  -2.034  -1.229  0.00  0.00    -0.647 OA
ENDBRANCH   1  10
TORSDOF 4
