REMARK  2 active torsions:
REMARK  status: ('A' for Active; 'I' for Inactive)
REMARK    1  A    between atoms: C1_1  and  C2_2 
REMARK    2  A    between atoms: C2_2  and  C4_4 
ROOT
ATOM      1  C2  <0> d           0.002  -0.004   0.002  0.00  0.00     0.012 C 
ATOM      2  C3  <0> d           0.022  -0.665   1.133  0.00  0.00    -0.111 C 
ATOM      3  H4  <0> d           0.023  -0.130   2.071  0.00  0.00     0.067 H 
ATOM      4  H5  <0> d           0.036  -1.745   1.127  0.00  0.00     0.067 H 
ENDROOT
BRANCH   1   5
ATOM      5  C1  <0> d          -0.018   1.503   0.010  0.00  0.00    -0.047 C 
ATOM      6  H1  <0> d           1.004   1.880   0.003  0.00  0.00     0.033 H 
ATOM      7  H2  <0> d          -0.545   1.864  -0.873  0.00  0.00     0.033 H 
ATOM      8  H3  <0> d          -0.529   1.854   0.907  0.00  0.00     0.033 H 
ENDBRANCH   1   5
BRANCH   1   9
ATOM      9  C4  <0> d          -0.000  -0.750  -1.307  0.00  0.00     0.412 C 
ATOM     10  F1  <0> d          -0.641  -1.983  -1.140  0.00  0.00    -0.166 F 
ATOM     11  F2  <0> d          -0.679   0.002  -2.272  0.00  0.00    -0.166 F 
ATOM     12  F3  <0> d           1.318  -0.964  -1.725  0.00  0.00    -0.166 F 
ENDBRANCH   1   9
TORSDOF 2
