REMARK  2 active torsions:
REMARK  status: ('A' for Active; 'I' for Inactive)
REMARK    1  A    between atoms: C1_1  and  C2_2 
REMARK    2  A    between atoms: C3_3  and  C6_8 
ROOT
ATOM      1  C2  <0> d          -3.660   1.646   0.034  0.00  0.00     0.059 A 
ATOM      2  C3  <0> d          -2.439   0.967   0.019  0.00  0.00     0.080 A 
ATOM      3  N1  <0> d          -2.424  -0.363   0.012  0.00  0.00    -0.258 NA
ATOM      4  C4  <0> d          -3.561  -1.034   0.014  0.00  0.00     0.020 A 
ATOM      5  C5  <0> d          -4.768  -0.357   0.023  0.00  0.00     0.019 A 
ATOM      6  N2  <0> d          -4.790   0.966   0.031  0.00  0.00    -0.262 NA
ATOM      7  H4  <0> d          -3.550  -2.114   0.008  0.00  0.00     0.117 H 
ATOM      8  H5  <0> d          -5.696  -0.910   0.025  0.00  0.00     0.117 H 
ENDROOT
BRANCH   2   9
ATOM      9  C6  <0> d          -1.170   1.723   0.017  0.00  0.00    -0.062 C 
ATOM     10  C7  <0> d          -0.013   1.076   0.008  0.00  0.00    -0.119 C 
ATOM     11  H7  <0> d           0.002  -0.004   0.002  0.00  0.00     0.066 H 
ATOM     12  H8  <0> d           0.915   1.629   0.002  0.00  0.00     0.066 H 
ATOM     13  H6  <0> d          -1.185   2.803   0.023  0.00  0.00     0.085 H 
ENDBRANCH   2   9
BRANCH   1  14
ATOM     14  C1  <0> d          -3.686   3.153   0.049  0.00  0.00    -0.033 C 
ATOM     15  H1  <0> d          -3.700   3.526  -0.975  0.00  0.00     0.035 H 
ATOM     16  H2  <0> d          -4.578   3.496   0.572  0.00  0.00     0.035 H 
ATOM     17  H3  <0> d          -2.799   3.527   0.560  0.00  0.00     0.035 H 
ENDBRANCH   1  14
TORSDOF 2
