REMARK  6 active torsions:
REMARK  status: ('A' for Active; 'I' for Inactive)
REMARK    1  A    between atoms: C1_1  and  C2_2 
REMARK    2  A    between atoms: C2_2  and  C3_4 
REMARK    3  A    between atoms: C2_2  and  S1_7 
REMARK    4  A    between atoms: C3_4  and  O1_5 
REMARK    5  A    between atoms: O1_5  and  C4_6 
REMARK    6  A    between atoms: S1_7  and  N1_10 
ROOT
ATOM      1  C2  <0> d           0.002  -0.004   0.002  0.00  0.00     0.079 C 
ATOM      2  H1  <0> d           0.512  -0.356  -0.895  0.00  0.00     0.069 H 
ENDROOT
BRANCH   1   3
ATOM      3  C1  <0> d          -0.019   1.526   0.010  0.00  0.00    -0.057 C 
ATOM      4  H2  <0> d           1.004   1.903   0.003  0.00  0.00     0.029 H 
ATOM      5  H3  <0> d          -0.546   1.887  -0.873  0.00  0.00     0.029 H 
ATOM      6  H4  <0> d          -0.529   1.877   0.907  0.00  0.00     0.029 H 
ENDBRANCH   1   3
BRANCH   1   7
ATOM      7  C3  <0> d          -1.433  -0.534   0.013  0.00  0.00     0.036 C 
ATOM      8  H5  <0> d          -1.421  -1.619  -0.083  0.00  0.00     0.076 H 
ATOM      9  H6  <0> d          -1.916  -0.257   0.950  0.00  0.00     0.076 H 
BRANCH   7  10
ATOM     10  O1  <0> d          -2.158   0.032  -1.081  0.00  0.00    -0.395 OA
BRANCH  10  11
ATOM     11  C4  <0> d          -3.518  -0.400  -1.163  0.00  0.00     0.004 C 
ATOM     12  H7  <0> d          -3.549  -1.482  -1.282  0.00  0.00     0.066 H 
ATOM     13  H8  <0> d          -4.043  -0.120  -0.249  0.00  0.00     0.066 H 
ATOM     14  H9  <0> d          -3.999   0.075  -2.018  0.00  0.00     0.066 H 
ENDBRANCH  10  11
ENDBRANCH   7  10
ENDBRANCH   1   7
BRANCH   1  15
ATOM     15  S1  <0> d           0.879  -0.605   1.472  0.00  0.00     0.230 S 
ATOM     16  O2  <0> d           0.263  -0.103   2.649  0.00  0.00    -0.206 OA
ATOM     17  O3  <0> d           1.166  -1.990   1.338  0.00  0.00    -0.206 OA
BRANCH  15  18
ATOM     18  N1  <0> d           2.358   0.139   1.419  0.00  0.00    -0.328 N 
ATOM     19  H10 <0> d           2.570   0.745   0.692  0.00  0.00     0.168 HD
ATOM     20  H11 <0> d           3.012  -0.031   2.114  0.00  0.00     0.168 HD
ENDBRANCH  15  18
ENDBRANCH   1  15
TORSDOF 6
