REMARK  3 active torsions:
REMARK  status: ('A' for Active; 'I' for Inactive)
REMARK    1  A    between atoms: C1_1  and  C2_2 
REMARK    2  A    between atoms: C2_2  and  C3_3 
REMARK    3  A    between atoms: C4_6  and  N5_9 
ROOT
ATOM      1  C3  <0> d           1.155  -0.651  -0.013  0.00  0.00     0.171 A 
ATOM      2  N1  <0> d           0.002  -0.004   0.002  0.00  0.00    -0.117 NA
ATOM      3  N2  <0> d          -0.015   1.286   0.009  0.00  0.00     0.046 NA
ATOM      4  C4  <0> d           1.128   1.964   0.002  0.00  0.00     0.757 A 
ATOM      5  N3  <0> d           2.285   1.310  -0.013  0.00  0.00     0.046 NA
ATOM      6  N4  <0> d           2.294   0.020  -0.020  0.00  0.00    -0.117 NA
ENDROOT
BRANCH   1   7
ATOM      7  C2  <0> d           1.170  -2.158  -0.021  0.00  0.00    -0.008 C 
ATOM      8  H4  <0> d           2.069  -2.515   0.482  0.00  0.00     0.044 H 
ATOM      9  H5  <0> d           0.289  -2.534   0.499  0.00  0.00     0.044 H 
BRANCH   7  10
ATOM     10  C1  <0> d           1.162  -2.660  -1.467  0.00  0.00    -0.070 C 
ATOM     11  H1  <0> d           1.173  -3.750  -1.473  0.00  0.00     0.028 H 
ATOM     12  H2  <0> d           0.264  -2.303  -1.970  0.00  0.00     0.028 H 
ATOM     13  H3  <0> d           2.043  -2.284  -1.986  0.00  0.00     0.028 H 
ENDBRANCH   7  10
ENDBRANCH   1   7
BRANCH   4  14
ATOM     14  N5  <0> d           1.113   3.348   0.010  0.00  0.00    -0.228 N 
ATOM     15  H6  <0> d           0.269   3.825   0.021  0.00  0.00     0.174 HD
ATOM     16  H7  <0> d           1.948   3.842   0.004  0.00  0.00     0.174 HD
ENDBRANCH   4  14
TORSDOF 3
