REMARK  4 active torsions:
REMARK  status: ('A' for Active; 'I' for Inactive)
REMARK    1  A    between atoms: C1_1  and  O1_2 
REMARK    2  A    between atoms: O1_2  and  C2_3 
REMARK    3  A    between atoms: C2_3  and  C3_5 
REMARK    4  A    between atoms: C7_9  and  N1_11 
ROOT
ATOM      1  C3  <0> d          -0.048   3.850   0.023  0.00  0.00     0.041 A 
ATOM      2  C4  <0> d           1.166   3.161   0.007  0.00  0.00    -0.067 A 
ATOM      3  C5  <0> d           1.177   1.781   0.000  0.00  0.00    -0.080 A 
ATOM      4  C6  <0> d          -0.013   1.076   0.008  0.00  0.00    -0.058 A 
ATOM      5  C7  <0> d          -1.227   1.752   0.017  0.00  0.00     0.026 A 
ATOM      6  C8  <0> d          -1.248   3.138   0.031  0.00  0.00    -0.042 A 
ATOM      7  H4  <0> d           2.098   3.708   0.001  0.00  0.00     0.085 H 
ATOM      8  H5  <0> d           2.117   1.250  -0.011  0.00  0.00     0.083 H 
ATOM      9  H6  <0> d           0.002  -0.004   0.002  0.00  0.00     0.086 H 
ATOM     10  H7  <0> d          -2.191   3.666   0.043  0.00  0.00     0.088 H 
ENDROOT
BRANCH   1  11
ATOM     11  C2  <0> d          -0.062   5.327   0.031  0.00  0.00     0.293 C 
ATOM     12  O2  <0> d          -1.120   5.924   0.044  0.00  0.00    -0.259 OA
BRANCH  11  13
ATOM     13  O1  <0> d           1.098   6.012   0.023  0.00  0.00    -0.323 OA
BRANCH  13  14
ATOM     14  C1  <0> d           1.008   7.461   0.032  0.00  0.00     0.013 C 
ATOM     15  H1  <0> d           0.464   7.796  -0.851  0.00  0.00     0.067 H 
ATOM     16  H2  <0> d           0.481   7.787   0.929  0.00  0.00     0.067 H 
ATOM     17  H3  <0> d           2.011   7.887   0.025  0.00  0.00     0.067 H 
ENDBRANCH  13  14
ENDBRANCH  11  13
ENDBRANCH   1  11
BRANCH   5  18
ATOM     18  N1  <0> d          -2.426   1.035   0.019  0.00  0.00    -0.399 N 
ATOM     19  H8  <0> d          -2.411   0.065   0.013  0.00  0.00     0.156 HD
ATOM     20  H9  <0> d          -3.273   1.506   0.025  0.00  0.00     0.156 HD
ENDBRANCH   5  18
TORSDOF 4
