REMARK  2 active torsions:
REMARK  status: ('A' for Active; 'I' for Inactive)
REMARK    1  A    between atoms: C1_1  and  C2_2 
REMARK    2  A    between atoms: C3_3  and  N1_4 
ROOT
ATOM      1  N1  <0> d           1.300   1.768  -0.001  0.00  0.00    -0.225 N 
ATOM      2  C4  <0> d           2.126   0.666  -0.015  0.00  0.00     0.090 A 
ATOM      3  C5  <0> d           3.505   0.492  -0.029  0.00  0.00    -0.053 A 
ATOM      4  C6  <0> d           4.032  -0.780  -0.041  0.00  0.00    -0.081 A 
ATOM      5  C7  <0> d           3.195  -1.889  -0.038  0.00  0.00    -0.081 A 
ATOM      6  C8  <0> d           1.839  -1.739  -0.025  0.00  0.00    -0.051 A 
ATOM      7  C9  <0> d           1.278  -0.456  -0.013  0.00  0.00     0.109 A 
ATOM      8  N2  <0> d           0.002  -0.004   0.002  0.00  0.00    -0.130 NA
ATOM      9  N3  <0> d          -0.015   1.282   0.009  0.00  0.00    -0.061 NA
ATOM     10  H6  <0> d           4.160   1.350  -0.031  0.00  0.00     0.087 H 
ATOM     11  H7  <0> d           5.103  -0.917  -0.052  0.00  0.00     0.083 H 
ATOM     12  H8  <0> d           3.623  -2.881  -0.047  0.00  0.00     0.083 H 
ATOM     13  H9  <0> d           1.199  -2.609  -0.023  0.00  0.00     0.087 H 
ENDROOT
BRANCH   1  14
ATOM     14  C3  <0> d           1.695   3.105   0.002  0.00  0.00     0.002 C 
ATOM     15  C2  <0> d           0.787   4.061   0.016  0.00  0.00    -0.090 C 
ATOM     16  H4  <0> d          -0.263   3.808   0.025  0.00  0.00     0.078 H 
ATOM     17  H5  <0> d           2.745   3.358  -0.007  0.00  0.00     0.114 H 
BRANCH  15  18
ATOM     18  C1  <0> d           1.214   5.507   0.019  0.00  0.00    -0.058 C 
ATOM     19  H1  <0> d           1.801   5.714  -0.875  0.00  0.00     0.032 H 
ATOM     20  H2  <0> d           0.331   6.146   0.031  0.00  0.00     0.032 H 
ATOM     21  H3  <0> d           1.818   5.705   0.904  0.00  0.00     0.032 H 
ENDBRANCH  15  18
ENDBRANCH   1  14
TORSDOF 2
