REMARK  2 active torsions:
REMARK  status: ('A' for Active; 'I' for Inactive)
REMARK    1  A    between atoms: C1_1  and  C2_2 
REMARK    2  A    between atoms: C3_3  and  C4_4 
ROOT
ATOM      1  C4  <0> d          -0.018   1.468   0.010  0.00  0.00     0.029 C 
ATOM      2  C5  <0> d           0.002  -0.004   0.002  0.00  0.00     0.062 C 
ATOM      3  N1  <0> d           0.018  -1.140  -0.004  0.00  0.00    -0.197 NA
ATOM      4  H5  <0> d          -0.545   1.829  -0.873  0.00  0.00     0.060 H 
ATOM      5  H6  <0> d          -0.528   1.819   0.907  0.00  0.00     0.060 H 
ENDROOT
BRANCH   1   6
ATOM      6  C3  <0> d           1.396   1.989  -0.001  0.00  0.00    -0.093 C 
ATOM      7  C2  <0> d           1.776   2.832  -0.929  0.00  0.00    -0.093 C 
ATOM      8  H3  <0> d           1.077   3.152  -1.687  0.00  0.00     0.077 H 
ATOM      9  H4  <0> d           2.095   1.669   0.757  0.00  0.00     0.077 H 
BRANCH   7  10
ATOM     10  C1  <0> d           3.190   3.353  -0.940  0.00  0.00     0.029 C 
ATOM     11  C6  <0> d           3.802   3.085  -2.251  0.00  0.00     0.062 C 
ATOM     12  N2  <0> d           4.275   2.877  -3.263  0.00  0.00    -0.197 NA
ATOM     13  H1  <0> d           3.183   4.428  -0.755  0.00  0.00     0.060 H 
ATOM     14  H2  <0> d           3.767   2.855  -0.161  0.00  0.00     0.060 H 
ENDBRANCH   7  10
ENDBRANCH   1   6
TORSDOF 2
