REMARK  1 active torsions:
REMARK  status: ('A' for Active; 'I' for Inactive)
REMARK    1  A    between atoms: C4_4  and  O1_11 
ROOT
ATOM      1  C1  <0> d          -0.019   1.526   0.010  0.00  0.00    -0.064 C 
ATOM      2  C2  <0> d           1.417   2.055  -0.000  0.00  0.00    -0.063 C 
ATOM      3  C3  <0> d           2.133   1.562  -1.259  0.00  0.00    -0.040 C 
ATOM      4  C4  <0> d           2.154   0.032  -1.268  0.00  0.00     0.051 C 
ATOM      5  H1  <0> d           2.681  -0.329  -0.385  0.00  0.00     0.085 H 
ATOM      6  C5  <0> d           0.718  -0.497  -1.257  0.00  0.00     0.055 C 
ATOM      7  H2  <0> d           0.191  -0.136  -2.140  0.00  0.00     0.066 H 
ATOM      8  C6  <0> d           0.002  -0.004   0.002  0.00  0.00    -0.048 C 
ATOM      9  C7  <0> d           0.738  -1.969  -1.265  0.00  0.00     0.066 C 
ATOM     10  N1  <0> d           0.754  -3.105  -1.271  0.00  0.00    -0.197 NA
ATOM     11  H3  <0> d          -0.529   1.877   0.907  0.00  0.00     0.033 H 
ATOM     12  H4  <0> d          -0.546   1.887  -0.873  0.00  0.00     0.033 H 
ATOM     13  H5  <0> d           1.402   3.145   0.006  0.00  0.00     0.033 H 
ATOM     14  H6  <0> d           1.944   1.694   0.883  0.00  0.00     0.033 H 
ATOM     15  H7  <0> d           1.606   1.923  -2.142  0.00  0.00     0.036 H 
ATOM     16  H8  <0> d           3.155   1.939  -1.267  0.00  0.00     0.036 H 
ATOM     17  H9  <0> d           0.529  -0.365   0.885  0.00  0.00     0.035 H 
ATOM     18  H10 <0> d          -1.020  -0.381   0.010  0.00  0.00     0.035 H 
ENDROOT
BRANCH   4  19
ATOM     19  O1  <0> d           2.822  -0.429  -2.443  0.00  0.00    -0.394 OA
ATOM     20  H11 <0> d           3.739  -0.131  -2.517  0.00  0.00     0.210 HD
ENDBRANCH   4  19
TORSDOF 1
