REMARK  7 active torsions:
REMARK  status: ('A' for Active; 'I' for Inactive)
REMARK    1  A    between atoms: C1_1  and  O1_2 
REMARK    2  A    between atoms: O1_2  and  C2_3 
REMARK    3  A    between atoms: C2_3  and  C3_4 
REMARK    4  A    between atoms: C4_5  and  C5_6 
REMARK    5  A    between atoms: C6_7  and  C7_8 
REMARK    6  A    between atoms: C7_8  and  O2_9 
REMARK    7  A    between atoms: O2_9  and  C8_10 
ROOT
ATOM      1  C3  <0> d           0.634  -2.050   1.015  0.00  0.00    -0.066 C 
ATOM      2  C4  <0> d           0.603  -3.220   0.929  0.00  0.00    -0.013 C 
ENDROOT
BRANCH   2   3
ATOM      3  C5  <0> d           0.566  -4.593   0.828  0.00  0.00    -0.013 C 
ATOM      4  C6  <0> d           0.535  -5.763   0.741  0.00  0.00    -0.066 C 
BRANCH   4   5
ATOM      5  C7  <0> d           0.496  -7.231   0.633  0.00  0.00     0.074 C 
ATOM      6  H6  <0> d          -0.541  -7.567   0.618  0.00  0.00     0.093 H 
ATOM      7  H7  <0> d           0.992  -7.541  -0.287  0.00  0.00     0.093 H 
BRANCH   5   8
ATOM      8  O2  <0> d           1.167  -7.809   1.754  0.00  0.00    -0.384 OA
BRANCH   8   9
ATOM      9  C8  <0> d           1.187  -9.238   1.746  0.00  0.00     0.005 C 
ATOM     10  H8  <0> d           0.164  -9.616   1.754  0.00  0.00     0.066 H 
ATOM     11  H9  <0> d           1.697  -9.590   0.850  0.00  0.00     0.066 H 
ATOM     12  H10 <0> d           1.714  -9.599   2.629  0.00  0.00     0.066 H 
ENDBRANCH   8   9
ENDBRANCH   5   8
ENDBRANCH   4   5
ENDBRANCH   2   3
BRANCH   1  13
ATOM     13  C2  <0> d           0.673  -0.582   1.123  0.00  0.00     0.074 C 
ATOM     14  H4  <0> d           1.710  -0.247   1.139  0.00  0.00     0.093 H 
ATOM     15  H5  <0> d           0.177  -0.273   2.043  0.00  0.00     0.093 H 
BRANCH  13  16
ATOM     16  O1  <0> d           0.002  -0.004   0.002  0.00  0.00    -0.384 OA
BRANCH  16  17
ATOM     17  C1  <0> d          -0.017   1.425   0.010  0.00  0.00     0.005 C 
ATOM     18  H1  <0> d           1.005   1.802   0.002  0.00  0.00     0.066 H 
ATOM     19  H2  <0> d          -0.544   1.786  -0.873  0.00  0.00     0.066 H 
ATOM     20  H3  <0> d          -0.527   1.776   0.907  0.00  0.00     0.066 H 
ENDBRANCH  16  17
ENDBRANCH  13  16
ENDBRANCH   1  13
TORSDOF 7
