REMARK  4 active torsions:
REMARK  status: ('A' for Active; 'I' for Inactive)
REMARK    1  A    between atoms: C1_1  and  C2_2 
REMARK    2  A    between atoms: C2_2  and  C3_3 
REMARK    3  A    between atoms: C4_4  and  N1_5 
REMARK    4  A    between atoms: C5_6  and  C7_10 
ROOT
ATOM      1  C3  <0> d           1.653   2.108   3.933  0.00  0.00    -0.086 C 
ATOM      2  C4  <0> d           1.212   1.692   2.762  0.00  0.00     0.002 C 
ATOM      3  H6  <0> d           2.712   2.110   4.142  0.00  0.00     0.079 H 
ATOM      4  H7  <0> d           1.905   1.292   2.036  0.00  0.00     0.114 H 
ENDROOT
BRANCH   2   5
ATOM      5  N1  <0> d          -0.148   1.770   2.460  0.00  0.00    -0.230 N 
ATOM      6  N3  <0> d          -1.182   2.155   3.328  0.00  0.00    -0.160 NA
ATOM      7  C6  <0> d          -2.295   2.090   2.643  0.00  0.00     0.108 A 
ATOM      8  N2  <0> d          -2.017   1.694   1.401  0.00  0.00    -0.225 NA
ATOM      9  H8  <0> d          -3.279   2.324   3.022  0.00  0.00     0.149 H 
ATOM     10  C5  <0> d          -0.730   1.492   1.276  0.00  0.00     0.124 A 
BRANCH  10  11
ATOM     11  C7  <0> d          -0.023   1.035   0.027  0.00  0.00    -0.019 C 
ATOM     12  H9  <0> d           0.027  -0.054   0.015  0.00  0.00     0.037 H 
ATOM     13  H10 <0> d           0.987   1.445   0.011  0.00  0.00     0.037 H 
ATOM     14  H11 <0> d          -0.570   1.383  -0.849  0.00  0.00     0.037 H 
ENDBRANCH  10  11
ENDBRANCH   2   5
BRANCH   1  15
ATOM     15  C2  <0> d           0.677   2.579   4.981  0.00  0.00    -0.052 C 
ATOM     16  H4  <0> d           0.067   3.385   4.573  0.00  0.00     0.038 H 
ATOM     17  H5  <0> d           0.034   1.750   5.277  0.00  0.00     0.038 H 
BRANCH  15  18
ATOM     18  C1  <0> d           1.446   3.088   6.202  0.00  0.00    -0.073 C 
ATOM     19  H1  <0> d           2.090   3.917   5.906  0.00  0.00     0.027 H 
ATOM     20  H2  <0> d           0.741   3.429   6.959  0.00  0.00     0.027 H 
ATOM     21  H3  <0> d           2.056   2.282   6.609  0.00  0.00     0.027 H 
ENDBRANCH  15  18
ENDBRANCH   1  15
TORSDOF 4
