REMARK  4 active torsions:
REMARK  status: ('A' for Active; 'I' for Inactive)
REMARK    1  A    between atoms: C1_1  and  C2_2 
REMARK    2  A    between atoms: C2_2  and  C3_3 
REMARK    3  A    between atoms: C2_2  and  C4_4 
REMARK    4  A    between atoms: C2_2  and  C5_5 
ROOT
ATOM      1  C5  <0> d          -0.664   3.108   1.324  0.00  0.00     0.010 C 
ATOM      2  H1  <0> d           0.285   3.405   1.431  0.00  0.00     0.052 H 
ATOM      3  C6  <0> d          -0.726   1.578   1.269  0.00  0.00    -0.055 C 
ATOM      4  C7  <0> d          -0.013   1.086   0.008  0.00  0.00    -0.064 C 
ATOM      5  C8  <0> d          -0.750   1.591  -1.233  0.00  0.00    -0.059 C 
ATOM      6  C9  <0> d          -0.690   3.122  -1.273  0.00  0.00    -0.009 C 
ATOM      7  C10 <0> d          -1.231   3.658   0.034  0.00  0.00     0.131 C 
ATOM      8  O1  <0> d          -2.093   4.504   0.048  0.00  0.00    -0.298 OA
ATOM      9  H11 <0> d          -1.767   1.255   1.247  0.00  0.00     0.034 H 
ATOM     10  H12 <0> d          -0.235   1.163   2.149  0.00  0.00     0.034 H 
ATOM     11  H13 <0> d           0.002  -0.004   0.002  0.00  0.00     0.033 H 
ATOM     12  H14 <0> d           1.010   1.462   0.000  0.00  0.00     0.033 H 
ATOM     13  H15 <0> d          -0.276   1.186  -2.127  0.00  0.00     0.033 H 
ATOM     14  H16 <0> d          -1.790   1.268  -1.195  0.00  0.00     0.033 H 
ATOM     15  H17 <0> d           0.257   3.415  -1.398  0.00  0.00     0.044 H 
ATOM     16  H18 <0> d          -1.298   3.490  -2.099  0.00  0.00     0.044 H 
ENDROOT
BRANCH   1  17
ATOM     17  C2  <0> d          -1.493   3.613   2.507  0.00  0.00    -0.041 C 
BRANCH  17  18
ATOM     18  C1  <0> d          -2.942   3.147   2.349  0.00  0.00    -0.069 C 
ATOM     19  H2  <0> d          -2.973   2.058   2.323  0.00  0.00     0.028 H 
ATOM     20  H3  <0> d          -3.533   3.507   3.192  0.00  0.00     0.028 H 
ATOM     21  H4  <0> d          -3.353   3.545   1.421  0.00  0.00     0.028 H 
ENDBRANCH  17  18
BRANCH  17  22
ATOM     22  C3  <0> d          -0.917   3.055   3.809  0.00  0.00    -0.069 C 
ATOM     23  H5  <0> d           0.116   3.386   3.921  0.00  0.00     0.028 H 
ATOM     24  H6  <0> d          -1.508   3.414   4.652  0.00  0.00     0.028 H 
ATOM     25  H7  <0> d          -0.948   1.965   3.783  0.00  0.00     0.028 H 
ENDBRANCH  17  22
BRANCH  17  26
ATOM     26  C4  <0> d          -1.450   5.142   2.544  0.00  0.00    -0.069 C 
ATOM     27  H8  <0> d          -1.861   5.540   1.616  0.00  0.00     0.028 H 
ATOM     28  H9  <0> d          -2.041   5.502   3.386  0.00  0.00     0.028 H 
ATOM     29  H10 <0> d          -0.418   5.473   2.656  0.00  0.00     0.028 H 
ENDBRANCH  17  26
ENDBRANCH   1  17
TORSDOF 4
