REMARK  3 active torsions:
REMARK  status: ('A' for Active; 'I' for Inactive)
REMARK    1  A    between atoms: C1_1  and  C2_2 
REMARK    2  A    between atoms: C4_4  and  C7_8 
REMARK    3  A    between atoms: C5_6  and  C6_7 
ROOT
ATOM      1  C2  <0> d           1.169   1.793   0.001  0.00  0.00    -0.048 A 
ATOM      2  C3  <0> d          -0.013   1.076   0.008  0.00  0.00    -0.064 A 
ATOM      3  C4  <0> d          -1.190   1.748   0.017  0.00  0.00    -0.020 A 
ATOM      4  S1  <0> d          -0.644   3.448   0.027  0.00  0.00    -0.100 SA
ATOM      5  C5  <0> d           1.115   3.148   0.008  0.00  0.00    -0.015 A 
ATOM      6  H4  <0> d           0.002  -0.004   0.002  0.00  0.00     0.086 H 
ENDROOT
BRANCH   1   7
ATOM      7  C1  <0> d           2.497   1.081  -0.015  0.00  0.00    -0.050 C 
ATOM      8  H1  <0> d           2.807   0.914  -1.047  0.00  0.00     0.033 H 
ATOM      9  H2  <0> d           3.242   1.690   0.495  0.00  0.00     0.033 H 
ATOM     10  H3  <0> d           2.400   0.122   0.494  0.00  0.00     0.033 H 
ENDBRANCH   1   7
BRANCH   5  11
ATOM     11  C6  <0> d           2.248   4.142   0.003  0.00  0.00    -0.045 C 
ATOM     12  H5  <0> d           2.510   4.388  -1.026  0.00  0.00     0.034 H 
ATOM     13  H6  <0> d           1.938   5.048   0.524  0.00  0.00     0.034 H 
ATOM     14  H7  <0> d           3.113   3.711   0.505  0.00  0.00     0.034 H 
ENDBRANCH   5  11
BRANCH   3  15
ATOM     15  C7  <0> d          -2.594   1.202   0.020  0.00  0.00    -0.045 C 
ATOM     16  H8  <0> d          -2.928   1.064   1.048  0.00  0.00     0.034 H 
ATOM     17  H9  <0> d          -3.258   1.902  -0.487  0.00  0.00     0.034 H 
ATOM     18  H10 <0> d          -2.613   0.243  -0.499  0.00  0.00     0.034 H 
ENDBRANCH   3  15
TORSDOF 3
