REMARK  1 active torsions:
REMARK  status: ('A' for Active; 'I' for Inactive)
REMARK    1  A    between atoms: C3_3  and  C8_10 
ROOT
ATOM      1  C1  <0> d          -0.019   1.536   0.011  0.00  0.00    -0.058 C 
ATOM      2  C2  <0> d           1.398   2.059  -0.000  0.00  0.00    -0.052 C 
ATOM      3  C3  <0> d           1.823   2.327  -1.437  0.00  0.00     0.031 C 
ATOM      4  H1  <0> d           0.949   2.659  -1.998  0.00  0.00     0.056 H 
ATOM      5  C4  <0> d           2.410   1.170  -2.134  0.00  0.00    -0.046 C 
ATOM      6  C5  <0> d           1.357   0.040  -2.263  0.00  0.00    -0.009 C 
ATOM      7  C6  <0> d           1.081  -0.543  -0.920  0.00  0.00     0.127 C 
ATOM      8  O1  <0> d           1.743  -1.483  -0.550  0.00  0.00    -0.298 OA
ATOM      9  C7  <0> d           0.002  -0.004   0.002  0.00  0.00    -0.010 C 
ATOM     10  H2  <0> d          -0.529   1.888   0.907  0.00  0.00     0.033 H 
ATOM     11  H3  <0> d          -0.546   1.897  -0.873  0.00  0.00     0.033 H 
ATOM     12  H4  <0> d           1.448   2.985   0.573  0.00  0.00     0.034 H 
ATOM     13  H5  <0> d           2.062   1.319   0.444  0.00  0.00     0.034 H 
ATOM     14  H6  <0> d           2.738   1.475  -3.127  0.00  0.00     0.034 H 
ATOM     15  H7  <0> d           3.267   0.804  -1.568  0.00  0.00     0.034 H 
ATOM     16  H8  <0> d           0.435   0.449  -2.677  0.00  0.00     0.044 H 
ATOM     17  H9  <0> d           1.739  -0.737  -2.925  0.00  0.00     0.044 H 
ATOM     18  H10 <0> d           0.187  -0.363   1.014  0.00  0.00     0.044 H 
ATOM     19  H11 <0> d          -0.968  -0.371  -0.333  0.00  0.00     0.044 H 
ENDROOT
BRANCH   3  20
ATOM     20  C8  <0> d           2.837   3.441  -1.434  0.00  0.00     0.177 C 
ATOM     21  O2  <0> d           3.700   3.483  -2.294  0.00  0.00    -0.648 OA
ATOM     22  O3  <0> d           2.794   4.302  -0.571  0.00  0.00    -0.648 OA
ENDBRANCH   3  20
TORSDOF 1
