REMARK  6 active torsions:
REMARK  status: ('A' for Active; 'I' for Inactive)
REMARK    1  A    between atoms: C1_1  and  C2_2 
REMARK    2  A    between atoms: C2_2  and  C3_3 
REMARK    3  A    between atoms: C2_2  and  C4_4 
REMARK    4  A    between atoms: C2_2  and  O2_7 
REMARK    5  A    between atoms: C4_4  and  O1_5 
REMARK    6  A    between atoms: O1_5  and  C5_6 
ROOT
ATOM      1  C2  <0> d          -1.433  -0.534   0.013  0.00  0.00     0.072 C 
ENDROOT
BRANCH   1   2
ATOM      2  C1  <0> d          -2.173  -0.027  -1.227  0.00  0.00    -0.046 C 
ATOM      3  H1  <0> d          -1.663  -0.378  -2.123  0.00  0.00     0.031 H 
ATOM      4  H2  <0> d          -3.196  -0.404  -1.219  0.00  0.00     0.031 H 
ATOM      5  H3  <0> d          -2.188   1.063  -1.221  0.00  0.00     0.031 H 
ENDBRANCH   1   2
BRANCH   1   6
ATOM      6  C3  <0> d          -1.413  -2.063   0.004  0.00  0.00    -0.046 C 
ATOM      7  H4  <0> d          -0.885  -2.425   0.887  0.00  0.00     0.031 H 
ATOM      8  H5  <0> d          -2.435  -2.441   0.012  0.00  0.00     0.031 H 
ATOM      9  H6  <0> d          -0.902  -2.415  -0.892  0.00  0.00     0.031 H 
ENDBRANCH   1   6
BRANCH   1  10
ATOM     10  C4  <0> d           0.002  -0.004   0.002  0.00  0.00     0.047 C 
ATOM     11  H7  <0> d           0.512  -0.356  -0.895  0.00  0.00     0.078 H 
ATOM     12  H8  <0> d           0.529  -0.365   0.885  0.00  0.00     0.078 H 
BRANCH  10  13
ATOM     13  O1  <0> d          -0.017   1.425   0.010  0.00  0.00    -0.393 OA
BRANCH  13  14
ATOM     14  C5  <0> d           1.280   2.024   0.001  0.00  0.00     0.004 C 
ATOM     15  H9  <0> d           1.817   1.714  -0.896  0.00  0.00     0.066 H 
ATOM     16  H10 <0> d           1.179   3.109   0.007  0.00  0.00     0.066 H 
ATOM     17  H11 <0> d           1.834   1.705   0.884  0.00  0.00     0.066 H 
ENDBRANCH  13  14
ENDBRANCH  10  13
ENDBRANCH   1  10
BRANCH   1  18
ATOM     18  O2  <0> d          -2.102  -0.073   1.189  0.00  0.00    -0.388 OA
ATOM     19  H12 <0> d          -1.687  -0.357   2.014  0.00  0.00     0.210 HD
ENDBRANCH   1  18
TORSDOF 6
