REMARK  1 active torsions:
REMARK  status: ('A' for Active; 'I' for Inactive)
REMARK    1  A    between atoms: C5_8  and  N3_9 
ROOT
ATOM      1  C1  <0> d          -0.019   1.539   0.011  0.00  0.00    -0.056 C 
ATOM      2  C2  <0> d           1.482   1.898  -0.002  0.00  0.00    -0.035 C 
ATOM      3  C3  <0> d           2.178   0.716   0.637  0.00  0.00     0.013 A 
ATOM      4  C4  <0> d           1.320  -0.387   0.639  0.00  0.00     0.064 A 
ATOM      5  N1  <0> d           1.948  -1.393   1.198  0.00  0.00    -0.177 NA
ATOM      6  N2  <0> d           3.228  -0.965   1.569  0.00  0.00    -0.262 N 
ATOM      7  H1  <0> d           3.922  -1.664   2.059  0.00  0.00     0.191 HD
ATOM      8  C5  <0> d           3.351   0.335   1.217  0.00  0.00     0.123 A 
ATOM      9  C6  <0> d           0.002  -0.004   0.002  0.00  0.00    -0.022 C 
ATOM     10  H2  <0> d          -0.551   1.903  -0.881  0.00  0.00     0.034 H 
ATOM     11  H3  <0> d          -0.534   1.894   0.915  0.00  0.00     0.034 H 
ATOM     12  H4  <0> d           1.814   2.050  -1.040  0.00  0.00     0.040 H 
ATOM     13  H5  <0> d           1.643   2.821   0.574  0.00  0.00     0.040 H 
ATOM     14  H8  <0> d          -0.852  -0.386   0.580  0.00  0.00     0.042 H 
ATOM     15  H9  <0> d          -0.066  -0.366  -1.034  0.00  0.00     0.042 H 
ENDROOT
BRANCH   8  16
ATOM     16  N3  <0> d           4.472   1.137   1.410  0.00  0.00    -0.384 N 
ATOM     17  H6  <0> d           5.369   0.721   1.892  0.00  0.00     0.157 HD
ATOM     18  H7  <0> d           4.460   2.187   1.082  0.00  0.00     0.157 HD
ENDBRANCH   8  16
TORSDOF 1
