REMARK  3 active torsions:
REMARK  status: ('A' for Active; 'I' for Inactive)
REMARK    1  A    between atoms: C1_1  and  C2_2 
REMARK    2  A    between atoms: C4_4  and  N2_9 
REMARK    3  A    between atoms: C6_7  and  C7_8 
ROOT
ATOM      1  C2  <0> d           2.352  -0.034  -0.021  0.00  0.00    -0.035 A 
ATOM      2  C3  <0> d           2.381   1.351  -0.014  0.00  0.00    -0.049 A 
ATOM      3  C4  <0> d           1.170   2.038   0.002  0.00  0.00     0.043 A 
ATOM      4  C5  <0> d          -0.016   1.314   0.009  0.00  0.00     0.028 A 
ATOM      5  N1  <0> d           0.002  -0.004   0.002  0.00  0.00    -0.263 NA
ATOM      6  C6  <0> d           1.132  -0.684  -0.013  0.00  0.00     0.036 A 
ATOM      7  H4  <0> d           3.320   1.885  -0.020  0.00  0.00     0.087 H 
ATOM      8  H5  <0> d          -0.961   1.835   0.017  0.00  0.00     0.118 H 
ENDROOT
BRANCH   1   9
ATOM      9  C1  <0> d           3.636  -0.823  -0.038  0.00  0.00    -0.049 C 
ATOM     10  H1  <0> d           4.491  -0.131  -0.043  0.00  0.00     0.033 H 
ATOM     11  H2  <0> d           3.668  -1.452  -0.939  0.00  0.00     0.033 H 
ATOM     12  H3  <0> d           3.686  -1.461   0.857  0.00  0.00     0.033 H 
ENDBRANCH   1   9
BRANCH   6  13
ATOM     13  C7  <0> d           1.093  -2.190  -0.020  0.00  0.00    -0.035 C 
ATOM     14  H6  <0> d           0.047  -2.530  -0.012  0.00  0.00     0.035 H 
ATOM     15  H7  <0> d           1.611  -2.575   0.871  0.00  0.00     0.035 H 
ATOM     16  H8  <0> d           1.593  -2.565  -0.925  0.00  0.00     0.035 H 
ENDBRANCH   6  13
BRANCH   3  17
ATOM     17  N2  <0> d           1.147   3.435   0.009  0.00  0.00    -0.398 N 
ATOM     18  H9  <0> d           0.185   3.969   0.022  0.00  0.00     0.156 HD
ATOM     19  H10 <0> d           2.090   4.001   0.002  0.00  0.00     0.156 HD
ENDBRANCH   3  17
TORSDOF 3
