REMARK  8 active torsions:
REMARK  status: ('A' for Active; 'I' for Inactive)
REMARK    1  A    between atoms: C1_1  and  C2_2 
REMARK    2  A    between atoms: C2_2  and  O1_3 
REMARK    3  A    between atoms: O1_3  and  C3_4 
REMARK    4  A    between atoms: C3_4  and  C8_11 
REMARK    5  A    between atoms: C4_5  and  C5_6 
REMARK    6  A    between atoms: C5_6  and  O3_8 
REMARK    7  A    between atoms: O3_8  and  C6_9 
REMARK    8  A    between atoms: C6_9  and  C7_10 
ROOT
ATOM      1  C3  <0> d          -0.273   1.382  -4.735  0.00  0.00     0.048 C 
ATOM      2  C4  <0> d          -0.888   1.565  -3.553  0.00  0.00     0.017 C 
ATOM      3  H6  <0> d          -1.820   2.108  -3.507  0.00  0.00     0.096 H 
ENDROOT
BRANCH   1   4
ATOM      4  O1  <0> d           0.837   0.620  -4.807  0.00  0.00    -0.356 OA
BRANCH   4   5
ATOM      5  C2  <0> d           2.072   1.288  -5.178  0.00  0.00     0.022 C 
ATOM      6  H4  <0> d           1.991   1.660  -6.199  0.00  0.00     0.074 H 
ATOM      7  H5  <0> d           2.251   2.122  -4.500  0.00  0.00     0.074 H 
BRANCH   5   8
ATOM      8  C1  <0> d           3.234   0.297  -5.087  0.00  0.00    -0.056 C 
ATOM      9  H1  <0> d           4.161   0.798  -5.365  0.00  0.00     0.030 H 
ATOM     10  H2  <0> d           3.315  -0.075  -4.065  0.00  0.00     0.030 H 
ATOM     11  H3  <0> d           3.054  -0.538  -5.764  0.00  0.00     0.030 H 
ENDBRANCH   5   8
ENDBRANCH   4   5
ENDBRANCH   1   4
BRANCH   1  12
ATOM     12  C8  <0> d          -0.825   2.028  -5.980  0.00  0.00    -0.032 C 
ATOM     13  H12 <0> d          -0.377   3.014  -6.106  0.00  0.00     0.036 H 
ATOM     14  H13 <0> d          -0.591   1.409  -6.845  0.00  0.00     0.036 H 
ATOM     15  H14 <0> d          -1.906   2.130  -5.887  0.00  0.00     0.036 H 
ENDBRANCH   1  12
BRANCH   2  16
ATOM     16  C5  <0> d          -0.312   1.048  -2.368  0.00  0.00     0.285 C 
ATOM     17  O2  <0> d           0.687   0.355  -2.429  0.00  0.00    -0.260 OA
BRANCH  16  18
ATOM     18  O3  <0> d          -0.870   1.322  -1.170  0.00  0.00    -0.318 OA
BRANCH  18  19
ATOM     19  C6  <0> d          -0.236   0.767  -0.016  0.00  0.00     0.026 C 
ATOM     20  H7  <0> d          -0.229  -0.321  -0.094  0.00  0.00     0.074 H 
ATOM     21  H8  <0> d           0.788   1.133   0.047  0.00  0.00     0.074 H 
BRANCH  19  22
ATOM     22  C7  <0> d          -1.006   1.183   1.238  0.00  0.00    -0.056 C 
ATOM     23  H9  <0> d          -1.013   2.271   1.316  0.00  0.00     0.030 H 
ATOM     24  H10 <0> d          -2.030   0.817   1.175  0.00  0.00     0.030 H 
ATOM     25  H11 <0> d          -0.522   0.760   2.119  0.00  0.00     0.030 H 
ENDBRANCH  19  22
ENDBRANCH  18  19
ENDBRANCH  16  18
ENDBRANCH   2  16
TORSDOF 8
