REMARK  6 active torsions:
REMARK  status: ('A' for Active; 'I' for Inactive)
REMARK    1  A    between atoms: C1_1  and  C2_2 
REMARK    2  A    between atoms: C2_2  and  C3_4 
REMARK    3  A    between atoms: C2_2  and  N1_7 
REMARK       I    between atoms: N1_7  and  C4_8 
REMARK    4  A    between atoms: C4_8  and  C5_10 
REMARK    5  A    between atoms: C5_10  and  C6_11 
REMARK    6  A    between atoms: C5_10  and  C7_12 
ROOT
ATOM      1  N1  <0> d           0.711  -0.489   1.189  0.00  0.00    -0.347 N 
ATOM      2  C4  <0> d           0.051  -0.633   2.355  0.00  0.00     0.221 C 
ATOM      3  O3  <0> d          -1.129  -0.361   2.423  0.00  0.00    -0.273 OA
ATOM      4  H5  <0> d           1.654  -0.707   1.135  0.00  0.00     0.163 HD
ENDROOT
BRANCH   2   5
ATOM      5  C5  <0> d           0.780  -1.133   3.576  0.00  0.00     0.017 C 
ATOM      6  H6  <0> d           1.184  -2.125   3.378  0.00  0.00     0.053 H 
BRANCH   5   7
ATOM      7  C6  <0> d           1.924  -0.175   3.914  0.00  0.00    -0.065 C 
ATOM      8  H7  <0> d           1.520   0.818   4.113  0.00  0.00     0.028 H 
ATOM      9  H8  <0> d           2.451  -0.536   4.798  0.00  0.00     0.028 H 
ATOM     10  H9  <0> d           2.616  -0.124   3.074  0.00  0.00     0.028 H 
ENDBRANCH   5   7
BRANCH   5  11
ATOM     11  C7  <0> d          -0.191  -1.204   4.756  0.00  0.00    -0.065 C 
ATOM     12  H10 <0> d          -1.006  -1.886   4.516  0.00  0.00     0.028 H 
ATOM     13  H11 <0> d           0.336  -1.565   5.640  0.00  0.00     0.028 H 
ATOM     14  H12 <0> d          -0.595  -0.211   4.955  0.00  0.00     0.028 H 
ENDBRANCH   5  11
ENDBRANCH   2   5
BRANCH   1  15
ATOM     15  C2  <0> d           0.002  -0.004   0.002  0.00  0.00     0.092 C 
ATOM     16  H1  <0> d          -1.020  -0.381   0.010  0.00  0.00     0.089 H 
BRANCH  15  17
ATOM     17  C1  <0> d          -0.019   1.526   0.010  0.00  0.00    -0.048 C 
ATOM     18  H2  <0> d           1.004   1.903   0.003  0.00  0.00     0.030 H 
ATOM     19  H3  <0> d          -0.546   1.887  -0.873  0.00  0.00     0.030 H 
ATOM     20  H4  <0> d          -0.529   1.877   0.907  0.00  0.00     0.030 H 
ENDBRANCH  15  17
BRANCH  15  21
ATOM     21  C3  <0> d           0.707  -0.490  -1.238  0.00  0.00     0.196 C 
ATOM     22  O1  <0> d           1.802  -1.020  -1.149  0.00  0.00    -0.646 OA
ATOM     23  O2  <0> d           0.183  -0.354  -2.330  0.00  0.00    -0.646 OA
ENDBRANCH  15  21
ENDBRANCH   1  15
TORSDOF 6
