REMARK  5 active torsions:
REMARK  status: ('A' for Active; 'I' for Inactive)
REMARK    1  A    between atoms: C1_1  and  C2_2 
REMARK    2  A    between atoms: C2_2  and  C3_3 
REMARK    3  A    between atoms: C4_6  and  C9_13 
REMARK    4  A    between atoms: C6_9  and  C7_11 
REMARK    5  A    between atoms: C6_9  and  C8_12 
ROOT
ATOM      1  C3  <0> d          -0.019   1.526   0.010  0.00  0.00     0.132 C 
ATOM      2  H1  <0> d           1.004   1.903   0.003  0.00  0.00     0.129 H 
ATOM      3  O1  <0> d          -0.710   1.999  -1.148  0.00  0.00    -0.356 OA
ATOM      4  C4  <0> d          -0.808   3.425  -1.218  0.00  0.00     0.041 C 
ATOM      5  H2  <0> d           0.192   3.857  -1.273  0.00  0.00     0.083 H 
ATOM      6  C5  <0> d          -1.521   3.938   0.038  0.00  0.00    -0.013 C 
ATOM      7  C6  <0> d          -0.784   3.412   1.274  0.00  0.00     0.059 C 
ATOM      8  O2  <0> d          -0.688   1.987   1.187  0.00  0.00    -0.351 OA
ATOM      9  H8  <0> d          -1.512   5.028   0.043  0.00  0.00     0.041 H 
ATOM     10  H9  <0> d          -2.550   3.581   0.044  0.00  0.00     0.041 H 
ENDROOT
BRANCH   1  11
ATOM     11  C2  <0> d           0.002  -0.004   0.002  0.00  0.00    -0.022 C 
ATOM     12  H6  <0> d           0.450  -0.366   0.927  0.00  0.00     0.039 H 
ATOM     13  H7  <0> d          -1.018  -0.381  -0.080  0.00  0.00     0.039 H 
BRANCH  11  14
ATOM     14  C1  <0> d           0.825  -0.496  -1.190  0.00  0.00    -0.072 C 
ATOM     15  H3  <0> d           0.840  -1.586  -1.196  0.00  0.00     0.027 H 
ATOM     16  H4  <0> d           0.377  -0.134  -2.115  0.00  0.00     0.027 H 
ATOM     17  H5  <0> d           1.845  -0.120  -1.108  0.00  0.00     0.027 H 
ENDBRANCH  11  14
ENDBRANCH   1  11
BRANCH   7  18
ATOM     18  C7  <0> d           0.620   4.017   1.331  0.00  0.00    -0.048 C 
ATOM     19  H10 <0> d           0.545   5.103   1.388  0.00  0.00     0.031 H 
ATOM     20  H11 <0> d           1.143   3.642   2.211  0.00  0.00     0.031 H 
ATOM     21  H12 <0> d           1.172   3.738   0.433  0.00  0.00     0.031 H 
ENDBRANCH   7  18
BRANCH   7  22
ATOM     22  C8  <0> d          -1.559   3.798   2.535  0.00  0.00    -0.048 C 
ATOM     23  H13 <0> d          -2.558   3.363   2.496  0.00  0.00     0.031 H 
ATOM     24  H14 <0> d          -1.034   3.424   3.414  0.00  0.00     0.031 H 
ATOM     25  H15 <0> d          -1.638   4.884   2.595  0.00  0.00     0.031 H 
ENDBRANCH   7  22
BRANCH   4  26
ATOM     26  C9  <0> d          -1.608   3.823  -2.460  0.00  0.00    -0.052 C 
ATOM     27  H16 <0> d          -2.608   3.394  -2.400  0.00  0.00     0.030 H 
ATOM     28  H17 <0> d          -1.682   4.909  -2.512  0.00  0.00     0.030 H 
ATOM     29  H18 <0> d          -1.105   3.449  -3.352  0.00  0.00     0.030 H 
ENDBRANCH   4  26
TORSDOF 5
