REMARK  4 active torsions:
REMARK  status: ('A' for Active; 'I' for Inactive)
REMARK    1  A    between atoms: C1_1  and  C2_2 
REMARK    2  A    between atoms: C3_5  and  O1_6 
REMARK    3  A    between atoms: C4_7  and  C5_8 
REMARK    4  A    between atoms: C5_8  and  C6_9 
ROOT
ATOM      1  C6  <0> d           2.557   4.080   1.218  0.00  0.00     0.018 C 
ATOM      2  C7  <0> d           3.010   4.788   2.427  0.00  0.00     0.059 C 
ATOM      3  N3  <0> d           3.359   5.334   3.360  0.00  0.00    -0.197 NA
ATOM      4  H6  <0> d           3.039   3.092   1.170  0.00  0.00     0.055 H 
ATOM      5  H7  <0> d           2.828   4.665   0.327  0.00  0.00     0.055 H 
ENDROOT
BRANCH   1   6
ATOM      6  C5  <0> d           1.038   3.903   1.270  0.00  0.00    -0.026 C 
ATOM      7  H4  <0> d           0.556   4.891   1.318  0.00  0.00     0.041 H 
ATOM      8  H5  <0> d           0.766   3.318   2.161  0.00  0.00     0.041 H 
BRANCH   6   9
ATOM      9  C4  <0> d           0.567   3.167   0.014  0.00  0.00     0.007 A 
ATOM     10  C2  <0> d          -0.937   2.991   0.027  0.00  0.00     0.102 A 
ATOM     11  N1  <0> d          -1.254   2.380  -1.046  0.00  0.00    -0.295 N 
ATOM     12  H8  <0> d          -2.308   2.148  -1.257  0.00  0.00     0.183 HD
ATOM     13  N2  <0> d          -0.157   2.074  -1.847  0.00  0.00    -0.153 NA
ATOM     14  C3  <0> d           0.990   2.515  -1.289  0.00  0.00     0.186 A 
BRANCH  10  15
ATOM     15  C1  <0> d          -1.966   4.092   0.044  0.00  0.00    -0.045 C 
ATOM     16  H1  <0> d          -2.974   3.651   0.051  0.00  0.00     0.031 H 
ATOM     17  H2  <0> d          -1.847   4.719  -0.852  0.00  0.00     0.031 H 
ATOM     18  H3  <0> d          -1.829   4.708   0.944  0.00  0.00     0.031 H 
ENDBRANCH  10  15
BRANCH  14  19
ATOM     19  O1  <0> d           2.114   2.412  -1.732  0.00  0.00    -0.343 OA
ATOM     20  H9  <0> d           2.281   1.911  -2.697  0.00  0.00     0.219 HD
ENDBRANCH  14  19
ENDBRANCH   6   9
ENDBRANCH   1   6
TORSDOF 4
