REMARK  6 active torsions:
REMARK  status: ('A' for Active; 'I' for Inactive)
REMARK    1  A    between atoms: C1_1  and  C2_2 
REMARK    2  A    between atoms: C2_2  and  C3_3 
REMARK    3  A    between atoms: C4_4  and  C7_10 
REMARK    4  A    between atoms: N2_6  and  C6_9 
REMARK    5  A    between atoms: C5_7  and  N3_8 
REMARK    6  A    between atoms: C7_10  and  C8_11 
ROOT
ATOM      1  C3  <0> d          -0.718   1.572   1.248  0.00  0.00     0.013 A 
ATOM      2  C4  <0> d          -1.743   0.906   1.927  0.00  0.00     0.064 A 
ATOM      3  N1  <0> d          -2.099   1.637   2.952  0.00  0.00    -0.175 NA
ATOM      4  N2  <0> d          -1.313   2.796   2.963  0.00  0.00    -0.258 N 
ATOM      5  C5  <0> d          -0.467   2.735   1.910  0.00  0.00     0.125 A 
ENDROOT
BRANCH   1   6
ATOM      6  C2  <0> d          -0.013   1.086   0.008  0.00  0.00    -0.039 C 
ATOM      7  H4  <0> d           0.002  -0.004   0.002  0.00  0.00     0.039 H 
ATOM      8  H5  <0> d           1.010   1.463   0.000  0.00  0.00     0.039 H 
BRANCH   6   9
ATOM      9  C1  <0> d          -0.753   1.593  -1.232  0.00  0.00    -0.072 C 
ATOM     10  H1  <0> d          -1.775   1.215  -1.224  0.00  0.00     0.028 H 
ATOM     11  H2  <0> d          -0.767   2.683  -1.226  0.00  0.00     0.028 H 
ATOM     12  H3  <0> d          -0.242   1.241  -2.128  0.00  0.00     0.028 H 
ENDBRANCH   6   9
ENDBRANCH   1   6
BRANCH   5  13
ATOM     13  N3  <0> d           0.487   3.688   1.565  0.00  0.00    -0.384 N 
ATOM     14  H6  <0> d           1.048   3.553   0.785  0.00  0.00     0.157 HD
ATOM     15  H7  <0> d           0.590   4.489   2.103  0.00  0.00     0.157 HD
ENDBRANCH   5  13
BRANCH   2  16
ATOM     16  C7  <0> d          -2.336  -0.425   1.543  0.00  0.00    -0.026 C 
ATOM     17  H11 <0> d          -3.379  -0.462   1.855  0.00  0.00     0.041 H 
ATOM     18  H12 <0> d          -2.275  -0.552   0.462  0.00  0.00     0.041 H 
BRANCH  16  19
ATOM     19  C8  <0> d          -1.557  -1.547   2.233  0.00  0.00    -0.071 C 
ATOM     20  H13 <0> d          -0.514  -1.511   1.921  0.00  0.00     0.028 H 
ATOM     21  H14 <0> d          -1.618  -1.420   3.314  0.00  0.00     0.028 H 
ATOM     22  H15 <0> d          -1.986  -2.510   1.956  0.00  0.00     0.028 H 
ENDBRANCH  16  19
ENDBRANCH   2  16
BRANCH   4  23
ATOM     23  C6  <0> d          -1.391   3.881   3.945  0.00  0.00     0.004 C 
ATOM     24  H8  <0> d          -0.712   3.671   4.772  0.00  0.00     0.059 H 
ATOM     25  H9  <0> d          -1.107   4.820   3.471  0.00  0.00     0.059 H 
ATOM     26  H10 <0> d          -2.410   3.957   4.322  0.00  0.00     0.059 H 
ENDBRANCH   4  23
TORSDOF 6
