REMARK  3 active torsions:
REMARK  status: ('A' for Active; 'I' for Inactive)
REMARK    1  A    between atoms: C1_1  and  C2_2 
REMARK    2  A    between atoms: C4_6  and  C5_9 
REMARK    3  A    between atoms: C5_9  and  O3_10 
ROOT
ATOM      1  C2  <0> d          -0.729   1.579   1.267  0.00  0.00     0.128 C 
ATOM      2  H1  <0> d          -1.754   1.209   1.274  0.00  0.00     0.128 H 
ATOM      3  O1  <0> d          -0.737   3.017   1.286  0.00  0.00    -0.359 OA
ATOM      4  C3  <0> d          -0.590   3.369   2.682  0.00  0.00     0.049 C 
ATOM      5  C4  <0> d           0.372   2.264   3.186  0.00  0.00     0.082 C 
ATOM      6  H2  <0> d           1.407   2.523   2.963  0.00  0.00     0.090 H 
ATOM      7  O2  <0> d          -0.038   1.106   2.431  0.00  0.00    -0.352 OA
ATOM      8  H6  <0> d          -1.547   3.320   3.200  0.00  0.00     0.078 H 
ATOM      9  H7  <0> d          -0.140   4.356   2.790  0.00  0.00     0.078 H 
ENDROOT
BRANCH   5  10
ATOM     10  C5  <0> d           0.183   2.026   4.686  0.00  0.00     0.043 C 
ATOM     11  H8  <0> d           0.389   2.948   5.229  0.00  0.00     0.078 H 
ATOM     12  H9  <0> d          -0.843   1.712   4.877  0.00  0.00     0.078 H 
BRANCH  10  13
ATOM     13  O3  <0> d           1.083   1.005   5.123  0.00  0.00    -0.398 OA
ATOM     14  H10 <0> d           1.018   0.801   6.066  0.00  0.00     0.209 HD
ENDBRANCH  10  13
ENDBRANCH   5  10
BRANCH   1  15
ATOM     15  C1  <0> d          -0.013   1.086   0.008  0.00  0.00    -0.031 C 
ATOM     16  H3  <0> d           0.002  -0.004   0.002  0.00  0.00     0.034 H 
ATOM     17  H4  <0> d           1.010   1.463   0.000  0.00  0.00     0.034 H 
ATOM     18  H5  <0> d          -0.540   1.447  -0.875  0.00  0.00     0.034 H 
ENDBRANCH   1  15
TORSDOF 3
