REMARK  1 active torsions:
REMARK  status: ('A' for Active; 'I' for Inactive)
REMARK    1  A    between atoms: C4_6  and  O3_8 
ROOT
ATOM      1  C1  <0> d           1.169   3.102   0.008  0.00  0.00    -0.012 C 
ATOM      2  C2  <0> d           1.843   3.511  -1.319  0.00  0.00     0.032 C 
ATOM      3  O1  <0> d           1.869   2.293  -2.123  0.00  0.00    -0.319 OA
ATOM      4  C3  <0> d           2.007   1.241  -1.295  0.00  0.00     0.287 C 
ATOM      5  O2  <0> d           2.603   0.219  -1.541  0.00  0.00    -0.262 OA
ATOM      6  C4  <0> d           1.286   1.562  -0.002  0.00  0.00     0.121 C 
ATOM      7  H1  <0> d           1.868   1.220   0.854  0.00  0.00     0.099 H 
ATOM      8  H2  <0> d           0.123   3.408   0.019  0.00  0.00     0.040 H 
ATOM      9  H3  <0> d           1.704   3.524   0.858  0.00  0.00     0.040 H 
ATOM     10  H4  <0> d           1.257   4.282  -1.820  0.00  0.00     0.075 H 
ATOM     11  H5  <0> d           2.857   3.867  -1.135  0.00  0.00     0.075 H 
ENDROOT
BRANCH   6  12
ATOM     12  O3  <0> d          -0.011   0.963   0.007  0.00  0.00    -0.386 OA
ATOM     13  H6  <0> d           0.002  -0.004   0.002  0.00  0.00     0.210 HD
ENDBRANCH   6  12
TORSDOF 1
