REMARK  1 active torsions:
REMARK  status: ('A' for Active; 'I' for Inactive)
REMARK    1  A    between atoms: C2_2  and  C3_3 
ROOT
ATOM      1  C1  <0> d           0.018  -1.178  -0.004  0.00  0.00    -0.147 C 
ATOM      2  C2  <0> d           0.002  -0.004   0.002  0.00  0.00    -0.058 C 
ATOM      3  H1  <0> d           0.032  -2.228  -0.010  0.00  0.00     0.167 H 
ENDROOT
BRANCH   2   4
ATOM      4  C3  <0> d          -0.017   1.428   0.010  0.00  0.00     0.111 A 
ATOM      5  N2  <0> d           1.076   2.266   0.004  0.00  0.00    -0.298 N 
ATOM      6  C5  <0> d           0.596   3.550   0.013  0.00  0.00     0.134 A 
ATOM      7  C6  <0> d           2.419   2.028  -0.011  0.00  0.00    -0.012 A 
ATOM      8  N1  <0> d          -0.731   3.503   0.032  0.00  0.00    -0.240 NA
ATOM      9  C9  <0> d           1.501   4.629   0.005  0.00  0.00    -0.038 A 
ATOM     10  C4  <0> d          -1.134   2.237   0.031  0.00  0.00     0.039 A 
ATOM     11  H2  <0> d          -2.160   1.899   0.044  0.00  0.00     0.119 H 
ATOM     12  C8  <0> d           2.839   4.379  -0.001  0.00  0.00    -0.078 A 
ATOM     13  H6  <0> d           1.136   5.646   0.015  0.00  0.00     0.089 H 
ATOM     14  C7  <0> d           3.299   3.053  -0.013  0.00  0.00    -0.067 A 
ATOM     15  H5  <0> d           3.544   5.198  -0.002  0.00  0.00     0.083 H 
ATOM     16  H4  <0> d           4.359   2.851  -0.025  0.00  0.00     0.085 H 
ATOM     17  H3  <0> d           2.782   1.011  -0.019  0.00  0.00     0.112 H 
ENDBRANCH   2   4
TORSDOF 1
