REMARK  4 active torsions:
REMARK  status: ('A' for Active; 'I' for Inactive)
REMARK    1  A    between atoms: C1_1  and  C2_2 
REMARK    2  A    between atoms: C2_2  and  O1_3 
REMARK    3  A    between atoms: O1_3  and  C3_4 
REMARK    4  A    between atoms: C3_4  and  C4_6 
ROOT
ATOM      1  C3  <0> d           1.566  -2.060  -0.024  0.00  0.00     0.301 C 
ATOM      2  O2  <0> d           0.674  -2.888  -0.020  0.00  0.00    -0.259 OA
ENDROOT
BRANCH   1   3
ATOM      3  O1  <0> d           2.854  -2.458  -0.038  0.00  0.00    -0.317 OA
BRANCH   3   4
ATOM      4  C2  <0> d           3.103  -3.888  -0.049  0.00  0.00     0.026 C 
ATOM      5  H4  <0> d           2.668  -4.339   0.843  0.00  0.00     0.074 H 
ATOM      6  H5  <0> d           2.651  -4.329  -0.936  0.00  0.00     0.074 H 
BRANCH   4   7
ATOM      7  C1  <0> d           4.612  -4.144  -0.064  0.00  0.00    -0.056 C 
ATOM      8  H1  <0> d           5.047  -3.693  -0.956  0.00  0.00     0.030 H 
ATOM      9  H2  <0> d           5.064  -3.703   0.824  0.00  0.00     0.030 H 
ATOM     10  H3  <0> d           4.798  -5.218  -0.072  0.00  0.00     0.030 H 
ENDBRANCH   4   7
ENDBRANCH   3   4
ENDBRANCH   1   3
BRANCH   1  11
ATOM     11  C4  <0> d           1.240  -0.632  -0.013  0.00  0.00     0.099 A 
ATOM     12  S1  <0> d           2.325   0.788  -0.016  0.00  0.00    -0.075 SA
ATOM     13  C6  <0> d           1.094   2.013   0.002  0.00  0.00     0.040 A 
ATOM     14  N1  <0> d          -0.016   1.304   0.009  0.00  0.00    -0.265 NA
ATOM     15  H7  <0> d           1.209   3.087   0.007  0.00  0.00     0.126 H 
ATOM     16  C5  <0> d           0.002  -0.004   0.002  0.00  0.00     0.025 A 
ATOM     17  H6  <0> d          -0.914  -0.575   0.007  0.00  0.00     0.117 H 
ENDBRANCH   1  11
TORSDOF 4
