REMARK  5 active torsions:
REMARK  status: ('A' for Active; 'I' for Inactive)
REMARK    1  A    between atoms: C1_1  and  C2_2 
REMARK    2  A    between atoms: C2_2  and  C3_3 
REMARK    3  A    between atoms: C4_5  and  C7_10 
REMARK    4  A    between atoms: C5_6  and  C6_8 
REMARK    5  A    between atoms: C6_8  and  O1_9 
ROOT
ATOM      1  C3  <0> d           0.901   5.663  -0.423  0.00  0.00     0.075 A 
ATOM      2  N1  <0> d           0.955   5.207   0.807  0.00  0.00    -0.250 NA
ATOM      3  C4  <0> d           1.071   3.920   1.057  0.00  0.00     0.046 A 
ATOM      4  C5  <0> d           1.147   3.062   0.008  0.00  0.00     0.032 A 
ATOM      5  S1  <0> d           1.028   4.206  -1.360  0.00  0.00    -0.075 SA
ENDROOT
BRANCH   1   6
ATOM      6  C2  <0> d           0.764   7.086  -0.900  0.00  0.00    -0.022 C 
ATOM      7  H4  <0> d           0.238   7.101  -1.855  0.00  0.00     0.042 H 
ATOM      8  H5  <0> d           0.201   7.663  -0.166  0.00  0.00     0.042 H 
BRANCH   6   9
ATOM      9  C1  <0> d           2.154   7.701  -1.074  0.00  0.00    -0.071 C 
ATOM     10  H1  <0> d           2.680   7.687  -0.119  0.00  0.00     0.028 H 
ATOM     11  H2  <0> d           2.718   7.125  -1.808  0.00  0.00     0.028 H 
ATOM     12  H3  <0> d           2.056   8.731  -1.419  0.00  0.00     0.028 H 
ENDBRANCH   6   9
ENDBRANCH   1   6
BRANCH   4  13
ATOM     13  C6  <0> d           1.286   1.562  -0.002  0.00  0.00     0.048 C 
ATOM     14  H6  <0> d           1.840   1.243   0.881  0.00  0.00     0.082 H 
ATOM     15  H7  <0> d           1.823   1.252  -0.899  0.00  0.00     0.082 H 
BRANCH  13  16
ATOM     16  O1  <0> d          -0.011   0.963   0.007  0.00  0.00    -0.396 OA
ATOM     17  H8  <0> d           0.002  -0.004   0.002  0.00  0.00     0.209 HD
ENDBRANCH  13  16
ENDBRANCH   4  13
BRANCH   3  18
ATOM     18  C7  <0> d           1.124   3.411   2.475  0.00  0.00    -0.034 C 
ATOM     19  H9  <0> d           2.160   3.383   2.813  0.00  0.00     0.035 H 
ATOM     20  H10 <0> d           0.548   4.074   3.120  0.00  0.00     0.035 H 
ATOM     21  H11 <0> d           0.701   2.407   2.516  0.00  0.00     0.035 H 
ENDBRANCH   3  18
TORSDOF 5
