REMARK  1 active torsions:
REMARK  status: ('A' for Active; 'I' for Inactive)
REMARK    1  A    between atoms: C3_3  and  C7_8 
ROOT
ATOM      1  C1  <0> d           1.262   3.192   0.017  0.00  0.00    -0.049 C 
ATOM      2  C2  <0> d          -0.061   3.850  -0.381  0.00  0.00    -0.049 C 
ATOM      3  C3  <0> d          -1.185   3.221   0.453  0.00  0.00     0.034 C 
ATOM      4  H1  <0> d          -0.925   3.266   1.511  0.00  0.00     0.057 H 
ATOM      5  C4  <0> d          -1.347   1.761   0.018  0.00  0.00    -0.037 C 
ATOM      6  C5  <0> d          -0.013   1.076   0.008  0.00  0.00    -0.106 C 
ATOM      7  C6  <0> d           1.122   1.698   0.001  0.00  0.00    -0.106 C 
ATOM      8  H2  <0> d           1.541   3.518   1.019  0.00  0.00     0.038 H 
ATOM      9  H3  <0> d           2.038   3.490  -0.689  0.00  0.00     0.038 H 
ATOM     10  H4  <0> d          -0.013   4.920  -0.182  0.00  0.00     0.034 H 
ATOM     11  H5  <0> d          -0.250   3.682  -1.441  0.00  0.00     0.034 H 
ATOM     12  H6  <0> d          -1.780   1.725  -0.982  0.00  0.00     0.040 H 
ATOM     13  H7  <0> d          -2.011   1.250   0.716  0.00  0.00     0.040 H 
ATOM     14  H8  <0> d           0.002  -0.004   0.002  0.00  0.00     0.076 H 
ATOM     15  H9  <0> d           2.025   1.105  -0.018  0.00  0.00     0.076 H 
ENDROOT
BRANCH   3  16
ATOM     16  C7  <0> d          -2.471   3.970   0.215  0.00  0.00     0.177 C 
ATOM     17  O1  <0> d          -2.492   4.910  -0.543  0.00  0.00    -0.648 OA
ATOM     18  O2  <0> d          -3.594   3.591   0.846  0.00  0.00    -0.648 OA
ENDBRANCH   3  16
TORSDOF 1
