REMARK  2 active torsions:
REMARK  status: ('A' for Active; 'I' for Inactive)
REMARK    1  A    between atoms: C2_2  and  C6_8 
REMARK    2  A    between atoms: C3_3  and  C5_6 
ROOT
ATOM      1  C1  <0> d           1.996   5.194   0.010  0.00  0.00     0.036 A 
ATOM      2  C2  <0> d           2.450   3.911  -0.000  0.00  0.00     0.082 A 
ATOM      3  C3  <0> d           1.238   3.061   0.007  0.00  0.00     0.082 A 
ATOM      4  C4  <0> d           0.188   3.926   0.015  0.00  0.00     0.036 A 
ATOM      5  O1  <0> d           0.659   5.178   0.022  0.00  0.00    -0.333 OA
ATOM      6  H1  <0> d           2.614   6.079   0.009  0.00  0.00     0.125 H 
ATOM      7  H2  <0> d          -0.856   3.648   0.019  0.00  0.00     0.125 H 
ENDROOT
BRANCH   2   8
ATOM      8  C6  <0> d           3.852   3.463  -0.016  0.00  0.00     0.212 C 
ATOM      9  O3  <0> d           4.110   2.275  -0.025  0.00  0.00    -0.644 OA
ATOM     10  O5  <0> d           4.849   4.369  -0.021  0.00  0.00    -0.644 OA
ENDBRANCH   2   8
BRANCH   3  11
ATOM     11  C5  <0> d           1.181   1.591  -0.001  0.00  0.00     0.212 C 
ATOM     12  O2  <0> d           2.210   0.943  -0.014  0.00  0.00    -0.644 OA
ATOM     13  O4  <0> d          -0.011   0.963   0.007  0.00  0.00    -0.644 OA
ENDBRANCH   3  11
TORSDOF 2
