REMARK  3 active torsions:
REMARK  status: ('A' for Active; 'I' for Inactive)
REMARK    1  A    between atoms: C1_1  and  C2_2 
REMARK    2  A    between atoms: C4_4  and  C8_11 
REMARK    3  A    between atoms: C6_7  and  C7_8 
REMARK       I    between atoms: C7_8  and  N2_10 
ROOT
ATOM      1  C2  <0> d          -3.683   1.534   0.133  0.00  0.00    -0.043 A 
ATOM      2  C3  <0> d          -4.809   0.762   0.359  0.00  0.00    -0.053 A 
ATOM      3  C4  <0> d          -4.722  -0.613   0.236  0.00  0.00     0.030 A 
ATOM      4  N1  <0> d          -3.586  -1.198  -0.093  0.00  0.00    -0.265 NA
ATOM      5  C5  <0> d          -2.490  -0.506  -0.323  0.00  0.00     0.018 A 
ATOM      6  C6  <0> d          -2.492   0.885  -0.214  0.00  0.00     0.055 A 
ATOM      7  H4  <0> d          -5.745   1.228   0.629  0.00  0.00     0.087 H 
ATOM      8  H5  <0> d          -1.579  -1.020  -0.595  0.00  0.00     0.116 H 
ENDROOT
BRANCH   6   9
ATOM      9  C7  <0> d          -1.260   1.661  -0.468  0.00  0.00     0.251 C 
ATOM     10  O1  <0> d          -1.298   2.876  -0.480  0.00  0.00    -0.268 OA
ATOM     11  N2  <0> d          -0.093   1.022  -0.686  0.00  0.00    -0.366 N 
ATOM     12  H6  <0> d          -0.063   0.052  -0.676  0.00  0.00     0.159 HD
ATOM     13  H7  <0> d           0.715   1.531  -0.856  0.00  0.00     0.159 HD
ENDBRANCH   6   9
BRANCH   1  14
ATOM     14  C1  <0> d          -3.737   3.035   0.258  0.00  0.00    -0.050 C 
ATOM     15  H1  <0> d          -3.890   3.476  -0.727  0.00  0.00     0.033 H 
ATOM     16  H2  <0> d          -4.562   3.315   0.913  0.00  0.00     0.033 H 
ATOM     17  H3  <0> d          -2.800   3.399   0.677  0.00  0.00     0.033 H 
ENDBRANCH   1  14
BRANCH   3  18
ATOM     18  C8  <0> d          -5.946  -1.458   0.482  0.00  0.00    -0.035 C 
ATOM     19  H8  <0> d          -6.491  -1.588  -0.453  0.00  0.00     0.035 H 
ATOM     20  H9  <0> d          -5.644  -2.432   0.865  0.00  0.00     0.035 H 
ATOM     21  H10 <0> d          -6.588  -0.963   1.210  0.00  0.00     0.035 H 
ENDBRANCH   3  18
TORSDOF 3
