REMARK  0 active torsions:
REMARK  status: ('A' for Active; 'I' for Inactive)
ROOT
ATOM      1  C1  <0> d           1.165   2.451   0.004  0.00  0.00    -0.027 A 
ATOM      2  C2  <0> d           1.096   3.835   0.012  0.00  0.00     0.006 A 
ATOM      3  N1  <0> d          -0.091   4.421   0.027  0.00  0.00    -0.254 NA
ATOM      4  C3  <0> d          -1.198   3.705   0.034  0.00  0.00     0.087 A 
ATOM      5  N2  <0> d          -1.172   2.388   0.021  0.00  0.00    -0.230 NA
ATOM      6  C4  <0> d          -0.021   1.732   0.012  0.00  0.00     0.128 A 
ATOM      7 Cl1  <0> d           0.002  -0.004   0.002  0.00  0.00    -0.062 Cl
ATOM      8  H1  <0> d           2.119   1.945  -0.008  0.00  0.00     0.090 H 
ATOM      9  H2  <0> d           1.999   4.428   0.006  0.00  0.00     0.114 H 
ATOM     10  H3  <0> d          -2.151   4.212   0.045  0.00  0.00     0.146 H 
ENDROOT
TORSDOF 0
