REMARK  3 active torsions:
REMARK  status: ('A' for Active; 'I' for Inactive)
REMARK    1  A    between atoms: C1_1  and  C2_2 
REMARK    2  A    between atoms: C2_2  and  C4_6 
REMARK    3  A    between atoms: C4_6  and  C5_8 
ROOT
ATOM      1  C2  <0> d          -1.329   1.939   0.019  0.00  0.00     0.084 C 
ATOM      2  H1  <0> d          -1.246   2.779  -0.518  0.00  0.00     0.074 H 
ATOM      3  C3  <0> d          -2.374   1.084  -0.567  0.00  0.00     0.071 C 
ATOM      4  N1  <0> d          -3.181   0.424  -1.020  0.00  0.00    -0.196 NA
ENDROOT
BRANCH   1   5
ATOM      5  C1  <0> d          -1.706   2.290   1.460  0.00  0.00    -0.054 C 
ATOM      6  H2  <0> d          -0.932   2.923   1.894  0.00  0.00     0.029 H 
ATOM      7  H3  <0> d          -2.658   2.822   1.467  0.00  0.00     0.029 H 
ATOM      8  H4  <0> d          -1.798   1.375   2.045  0.00  0.00     0.029 H 
ENDBRANCH   1   5
BRANCH   1   9
ATOM      9  C4  <0> d          -0.014   1.203   0.009  0.00  0.00     0.140 C 
ATOM     10  O1  <0> d           0.002  -0.004   0.002  0.00  0.00    -0.297 OA
BRANCH   9  11
ATOM     11  C5  <0> d           1.280   1.975   0.000  0.00  0.00    -0.020 C 
ATOM     12  H5  <0> d           2.049   1.335  -0.010  0.00  0.00     0.037 H 
ATOM     13  H6  <0> d           1.321   2.607  -0.887  0.00  0.00     0.037 H 
ATOM     14  H7  <0> d           1.338   2.597   0.893  0.00  0.00     0.037 H 
ENDBRANCH   9  11
ENDBRANCH   1   9
TORSDOF 3
