REMARK  1 active torsions:
REMARK  status: ('A' for Active; 'I' for Inactive)
REMARK    1  A    between atoms: C3_4  and  C4_7 
ROOT
ATOM      1  C1  <0> d           0.002  -0.004   0.002  0.00  0.00     0.134 C 
ATOM      2  C2  <0> d          -0.019   1.537   0.011  0.00  0.00     0.047 C 
ATOM      3  O1  <0> d           1.361   1.950  -0.001  0.00  0.00    -0.349 OA
ATOM      4  C3  <0> d           2.099   0.848   0.570  0.00  0.00     0.317 C 
ATOM      5  H1  <0> d           2.048   0.880   1.668  0.00  0.00     0.148 H 
ATOM      6  N1  <0> d           1.443  -0.361   0.007  0.00  0.00     0.123 N 
ATOM      7  H2  <0> d          -0.474  -0.414  -0.901  0.00  0.00     0.083 H 
ATOM      8  H3  <0> d          -0.483  -0.424   0.895  0.00  0.00     0.083 H 
ATOM      9  H4  <0> d          -0.551   1.901  -0.881  0.00  0.00     0.077 H 
ATOM     10  H5  <0> d          -0.534   1.892   0.915  0.00  0.00     0.077 H 
ATOM     11  H6  <0> d           1.598  -1.251   0.634  0.00  0.00     0.319 HD
ENDROOT
BRANCH   4  12
ATOM     12  C4  <0> d           3.567   0.908   0.142  0.00  0.00     0.441 C 
ATOM     13  F1  <0> d           4.164   2.052   0.683  0.00  0.00    -0.166 F 
ATOM     14  F2  <0> d           4.235  -0.230   0.607  0.00  0.00    -0.166 F 
ATOM     15  F3  <0> d           3.645   0.957  -1.254  0.00  0.00    -0.166 F 
ENDBRANCH   4  12
TORSDOF 1
