REMARK  3 active torsions:
REMARK  status: ('A' for Active; 'I' for Inactive)
REMARK    1  A    between atoms: C6_6  and  C7_7 
REMARK    2  A    between atoms: C8_8  and  C9_9 
REMARK    3  A    between atoms: C9_9  and  O1_10 
ROOT
ATOM      1  C1  <0> d           1.254  -3.293  -0.033  0.00  0.00    -0.062 A 
ATOM      2  C2  <0> d           1.267  -4.673  -0.036  0.00  0.00    -0.044 A 
ATOM      3  C3  <0> d           0.075  -5.379  -0.029  0.00  0.00     0.116 A 
ATOM      4  C4  <0> d          -1.136  -4.705  -0.013  0.00  0.00    -0.044 A 
ATOM      5  C5  <0> d          -1.160  -3.326  -0.005  0.00  0.00    -0.062 A 
ATOM      6  C6  <0> d           0.037  -2.610  -0.012  0.00  0.00     0.018 A 
ATOM      7  F1  <0> d           0.093  -6.730  -0.036  0.00  0.00    -0.206 F 
ATOM      8  H1  <0> d           2.183  -2.744  -0.044  0.00  0.00     0.085 H 
ATOM      9  H2  <0> d           2.208  -5.203  -0.048  0.00  0.00     0.088 H 
ATOM     10  H3  <0> d          -2.062  -5.261  -0.007  0.00  0.00     0.088 H 
ATOM     11  H4  <0> d          -2.104  -2.802   0.008  0.00  0.00     0.085 H 
ENDROOT
BRANCH   6  12
ATOM     12  C7  <0> d           0.018  -1.178  -0.004  0.00  0.00    -0.065 C 
ATOM     13  C8  <0> d           0.002  -0.004   0.002  0.00  0.00    -0.075 C 
BRANCH  13  14
ATOM     14  C9  <0> d          -0.018   1.468   0.010  0.00  0.00     0.071 C 
ATOM     15  H5  <0> d          -0.545   1.829  -0.873  0.00  0.00     0.093 H 
ATOM     16  H6  <0> d          -0.528   1.819   0.907  0.00  0.00     0.093 H 
BRANCH  14  17
ATOM     17  O1  <0> d           1.323   1.962  -0.000  0.00  0.00    -0.389 OA
ATOM     18  H7  <0> d           1.386   2.927   0.004  0.00  0.00     0.210 HD
ENDBRANCH  14  17
ENDBRANCH  13  14
ENDBRANCH   6  12
TORSDOF 3
