REMARK  0 active torsions:
REMARK  status: ('A' for Active; 'I' for Inactive)
ROOT
ATOM      1  C1  <0> d           1.421   1.950  -0.001  0.00  0.00     0.196 C 
ATOM      2  C2  <0> d          -0.017   1.426   0.010  0.00  0.00     0.385 C 
ATOM      3  O1  <0> d           0.002  -0.004   0.002  0.00  0.00    -0.254 OA
ATOM      4  C3  <0> d           0.680  -0.565  -1.126  0.00  0.00     0.385 C 
ATOM      5  C4  <0> d           2.125  -0.060  -1.148  0.00  0.00     0.196 C 
ATOM      6  N1  <0> d           2.125   1.410  -1.173  0.00  0.00     0.100 N 
ATOM      7  F1  <0> d           0.674  -1.960  -1.028  0.00  0.00    -0.173 F 
ATOM      8  F2  <0> d           0.030  -0.175  -2.302  0.00  0.00    -0.173 F 
ATOM      9  F3  <0> d          -0.693   1.890  -1.124  0.00  0.00    -0.173 F 
ATOM     10  F4  <0> d          -0.671   1.878   1.161  0.00  0.00    -0.173 F 
ATOM     11  H1  <0> d           1.411   3.039  -0.053  0.00  0.00     0.093 H 
ATOM     12  H2  <0> d           1.931   1.633   0.909  0.00  0.00     0.093 H 
ATOM     13  H3  <0> d           2.646  -0.409  -0.257  0.00  0.00     0.093 H 
ATOM     14  H4  <0> d           2.629  -0.440  -2.037  0.00  0.00     0.093 H 
ATOM     15  H5  <0> d           1.721   1.757  -2.030  0.00  0.00     0.316 HD
ENDROOT
TORSDOF 0
