REMARK  2 active torsions:
REMARK  status: ('A' for Active; 'I' for Inactive)
REMARK    1  A    between atoms: C1_1  and  C2_2 
REMARK    2  A    between atoms: C4_4  and  C6_8 
ROOT
ATOM      1  C2  <0> d           1.234  -0.645  -0.013  0.00  0.00     0.034 A 
ATOM      2  C3  <0> d           0.002  -0.004   0.002  0.00  0.00    -0.025 A 
ATOM      3  C4  <0> d          -0.017   1.391   0.010  0.00  0.00     0.136 A 
ATOM      4  N1  <0> d           1.140   2.050   0.002  0.00  0.00    -0.235 NA
ATOM      5  C5  <0> d           2.284   1.401  -0.012  0.00  0.00     0.087 A 
ATOM      6  N2  <0> d           2.337   0.083  -0.020  0.00  0.00    -0.247 NA
ATOM      7  H4  <0> d          -0.917  -0.571   0.008  0.00  0.00     0.090 H 
ATOM      8  H5  <0> d           3.206   1.963  -0.018  0.00  0.00     0.146 H 
ENDROOT
BRANCH   1   9
ATOM      9  C1  <0> d           1.311  -2.150  -0.022  0.00  0.00    -0.035 C 
ATOM     10  H1  <0> d           0.294  -2.569  -0.015  0.00  0.00     0.035 H 
ATOM     11  H2  <0> d           1.856  -2.494   0.869  0.00  0.00     0.035 H 
ATOM     12  H3  <0> d           1.839  -2.484  -0.928  0.00  0.00     0.035 H 
ENDBRANCH   1   9
BRANCH   3  13
ATOM     13  C6  <0> d          -1.305   2.128   0.020  0.00  0.00     0.229 C 
ATOM     14  O1  <0> d          -2.353   1.517   0.021  0.00  0.00    -0.643 OA
ATOM     15  O2  <0> d          -1.310   3.474   0.027  0.00  0.00    -0.643 OA
ENDBRANCH   3  13
TORSDOF 2
