REMARK  3 active torsions:
REMARK  status: ('A' for Active; 'I' for Inactive)
REMARK    1  A    between atoms: C2_2  and  O4_12 
REMARK    2  A    between atoms: C3_4  and  O3_11 
REMARK    3  A    between atoms: C5_8  and  O2_10 
ROOT
ATOM      1  C1  <0> d          -1.401  -2.065   0.083  0.00  0.00     0.007 C 
ATOM      2  C2  <0> d          -1.435  -0.535   0.013  0.00  0.00     0.066 C 
ATOM      3  H1  <0> d          -1.962  -0.142   0.882  0.00  0.00     0.087 H 
ATOM      4  C3  <0> d           0.002  -0.004   0.002  0.00  0.00     0.081 C 
ATOM      5  H2  <0> d           0.514  -0.356  -0.893  0.00  0.00     0.090 H 
ATOM      6  C4  <0> d           0.736  -0.513   1.246  0.00  0.00     0.049 C 
ATOM      7  O1  <0> d           0.703  -1.941   1.266  0.00  0.00    -0.359 OA
ATOM      8  C5  <0> d          -0.613  -2.494   1.324  0.00  0.00     0.131 C 
ATOM      9  H3  <0> d          -1.120  -2.133   2.219  0.00  0.00     0.128 H 
ATOM     10  H4  <0> d          -2.419  -2.450   0.147  0.00  0.00     0.044 H 
ATOM     11  H5  <0> d          -0.917  -2.460  -0.810  0.00  0.00     0.044 H 
ATOM     12  H6  <0> d           1.771  -0.173   1.222  0.00  0.00     0.078 H 
ATOM     13  H7  <0> d           0.246  -0.126   2.140  0.00  0.00     0.078 H 
ENDROOT
BRANCH   2  14
ATOM     14  O4  <0> d          -2.105  -0.126  -1.181  0.00  0.00    -0.393 OA
ATOM     15  H10 <0> d          -3.021  -0.429  -1.241  0.00  0.00     0.210 HD
ENDBRANCH   2  14
BRANCH   4  16
ATOM     16  O3  <0> d          -0.017   1.425   0.010  0.00  0.00    -0.391 OA
ATOM     17  H9  <0> d           0.861   1.830   0.004  0.00  0.00     0.210 HD
ENDBRANCH   4  16
BRANCH   8  18
ATOM     18  O2  <0> d          -0.530  -3.920   1.366  0.00  0.00    -0.371 OA
ATOM     19  H8  <0> d          -0.043  -4.263   2.128  0.00  0.00     0.212 HD
ENDBRANCH   8  18
TORSDOF 3
