REMARK  4 active torsions:
REMARK  status: ('A' for Active; 'I' for Inactive)
REMARK    1  A    between atoms: C1_1  and  C2_2 
REMARK    2  A    between atoms: C2_2  and  S1_3 
REMARK    3  A    between atoms: S1_3  and  C3_4 
REMARK    4  A    between atoms: C6_8  and  C7_10 
ROOT
ATOM      1  C3  <0> d          -2.652   2.205   2.324  0.00  0.00     0.188 A 
ATOM      2  N1  <0> d          -2.000   2.441   3.454  0.00  0.00    -0.235 NA
ATOM      3  C4  <0> d          -0.693   2.255   3.531  0.00  0.00     0.007 A 
ATOM      4  C5  <0> d          -0.005   1.809   2.413  0.00  0.00    -0.043 A 
ATOM      5  C6  <0> d          -0.718   1.572   1.248  0.00  0.00     0.035 A 
ATOM      6  N2  <0> d          -2.024   1.782   1.236  0.00  0.00    -0.228 NA
ATOM      7  H6  <0> d          -0.167   2.449   4.454  0.00  0.00     0.114 H 
ATOM      8  H7  <0> d           1.062   1.650   2.449  0.00  0.00     0.088 H 
ENDROOT
BRANCH   1   9
ATOM      9  S1  <0> d          -4.394   2.466   2.266  0.00  0.00    -0.090 SA
BRANCH   9  10
ATOM     10  C2  <0> d          -4.685   3.023   3.963  0.00  0.00    -0.019 C 
ATOM     11  H4  <0> d          -4.377   2.244   4.659  0.00  0.00     0.049 H 
ATOM     12  H5  <0> d          -4.108   3.929   4.152  0.00  0.00     0.049 H 
BRANCH  10  13
ATOM     13  C1  <0> d          -6.174   3.319   4.154  0.00  0.00    -0.068 C 
ATOM     14  H1  <0> d          -6.349   3.655   5.176  0.00  0.00     0.028 H 
ATOM     15  H2  <0> d          -6.482   4.099   3.457  0.00  0.00     0.028 H 
ATOM     16  H3  <0> d          -6.751   2.414   3.964  0.00  0.00     0.028 H 
ENDBRANCH  10  13
ENDBRANCH   9  10
ENDBRANCH   1   9
BRANCH   5  17
ATOM     17  C7  <0> d          -0.013   1.086   0.008  0.00  0.00    -0.035 C 
ATOM     18  H8  <0> d           0.002  -0.004   0.002  0.00  0.00     0.035 H 
ATOM     19  H9  <0> d           1.010   1.463   0.000  0.00  0.00     0.035 H 
ATOM     20  H10 <0> d          -0.540   1.447  -0.875  0.00  0.00     0.035 H 
ENDBRANCH   5  17
TORSDOF 4
