REMARK  2 active torsions:
REMARK  status: ('A' for Active; 'I' for Inactive)
REMARK    1  A    between atoms: C1_1  and  N1_2 
REMARK       I    between atoms: N1_2  and  C2_3 
REMARK    2  A    between atoms: C2_3  and  C3_5 
ROOT
ATOM      1  C3  <0> d          -0.819   1.627  -1.191  0.00  0.00     0.125 C 
ATOM      2  H1  <0> d          -1.196   0.836  -1.856  0.00  0.00     0.099 H 
ATOM      3  C4  <0> d          -0.013   1.086   0.008  0.00  0.00    -0.024 C 
ATOM      4  C5  <0> d          -0.797   1.615   1.230  0.00  0.00     0.019 C 
ATOM      5  C6  <0> d          -1.676   2.706   0.638  0.00  0.00     0.259 C 
ATOM      6  O2  <0> d          -2.056   3.704   1.203  0.00  0.00    -0.265 OA
ATOM      7  O3  <0> d          -1.950   2.353  -0.631  0.00  0.00    -0.306 OA
ATOM      8  H6  <0> d           0.012  -0.013  -0.033  0.00  0.00     0.038 H 
ATOM      9  H7  <0> d           1.014   1.478  -0.034  0.00  0.00     0.038 H 
ATOM     10  H8  <0> d          -1.384   0.795   1.671  0.00  0.00     0.048 H 
ATOM     11  H9  <0> d          -0.091   2.004   1.978  0.00  0.00     0.048 H 
ENDROOT
BRANCH   1  12
ATOM     12  C2  <0> d           0.037   2.555  -2.013  0.00  0.00     0.246 C 
ATOM     13  N1  <0> d           1.121   2.079  -2.658  0.00  0.00    -0.363 N 
ATOM     14  H5  <0> d           1.380   1.013  -2.584  0.00  0.00     0.162 HD
ATOM     15  O1  <0> d          -0.249   3.731  -2.095  0.00  0.00    -0.271 OA
BRANCH  13  16
ATOM     16  C1  <0> d           1.952   2.982  -3.457  0.00  0.00    -0.018 C 
ATOM     17  H2  <0> d           2.784   2.416  -3.904  0.00  0.00     0.056 H 
ATOM     18  H3  <0> d           2.355   3.777  -2.812  0.00  0.00     0.056 H 
ATOM     19  H4  <0> d           1.344   3.431  -4.256  0.00  0.00     0.056 H 
ENDBRANCH  13  16
ENDBRANCH   1  12
TORSDOF 2
