REMARK  0 active torsions:
REMARK  status: ('A' for Active; 'I' for Inactive)
ROOT
ATOM      1  C1  <0> d          -0.013   1.076   0.008  0.00  0.00    -0.082 A 
ATOM      2  C2  <0> d          -1.228   1.746   0.017  0.00  0.00    -0.082 A 
ATOM      3  C3  <0> d          -1.271   3.124   0.030  0.00  0.00    -0.069 A 
ATOM      4  C4  <0> d          -0.083   3.849   0.023  0.00  0.00     0.018 A 
ATOM      5  C5  <0> d           1.155   3.169   0.008  0.00  0.00    -0.021 A 
ATOM      6  C6  <0> d           1.175   1.774   0.000  0.00  0.00    -0.072 A 
ATOM      7  C7  <0> d           2.390   3.958   0.001  0.00  0.00    -0.057 A 
ATOM      8  C8  <0> d           2.327   5.297   0.008  0.00  0.00    -0.021 A 
ATOM      9  N1  <0> d           1.139   5.977   0.023  0.00  0.00    -0.352 N 
ATOM     10  H1  <0> d           1.135   7.077   0.029  0.00  0.00     0.166 HD
ATOM     11  C9  <0> d          -0.070   5.322   0.030  0.00  0.00     0.109 A 
ATOM     12  N2  <0> d          -1.192   5.996   0.045  0.00  0.00    -0.385 N 
ATOM     13  H2  <0> d           0.002  -0.004   0.002  0.00  0.00     0.083 H 
ATOM     14  H3  <0> d          -2.149   1.182   0.019  0.00  0.00     0.083 H 
ATOM     15  H4  <0> d          -2.221   3.638   0.042  0.00  0.00     0.085 H 
ATOM     16  H5  <0> d           2.117   1.244  -0.011  0.00  0.00     0.084 H 
ATOM     17  H6  <0> d           3.349   3.462  -0.011  0.00  0.00     0.086 H 
ATOM     18  H7  <0> d           3.248   5.860   0.003  0.00  0.00     0.111 H 
ATOM     19  H8  <0> d          -1.173   7.096   0.050  0.00  0.00     0.157 HD
ATOM     20  H9  <0> d          -2.154   5.463   0.051  0.00  0.00     0.157 HD
ENDROOT
TORSDOF 0
