REMARK  5 active torsions:
REMARK  status: ('A' for Active; 'I' for Inactive)
REMARK    1  A    between atoms: C1_1  and  C2_2 
REMARK    2  A    between atoms: C2_2  and  N1_3 
REMARK       I    between atoms: N1_3  and  C3_4 
REMARK    3  A    between atoms: C3_4  and  O2_6 
REMARK    4  A    between atoms: O2_6  and  C4_7 
REMARK    5  A    between atoms: C4_7  and  C5_8 
ROOT
ATOM      1  N1  <0> d           0.002  -0.004   0.002  0.00  0.00    -0.337 N 
ATOM      2  C3  <0> d          -0.016   1.344   0.009  0.00  0.00     0.360 C 
ATOM      3  O1  <0> d           1.028   1.965   0.003  0.00  0.00    -0.239 OA
ATOM      4  H6  <0> d          -0.831  -0.500   0.007  0.00  0.00     0.164 HD
ENDROOT
BRANCH   2   5
ATOM      5  O2  <0> d          -1.191   2.001   0.019  0.00  0.00    -0.304 OA
BRANCH   5   6
ATOM      6  C4  <0> d          -1.135   3.452   0.026  0.00  0.00     0.027 C 
ATOM      7  H7  <0> d          -0.603   3.790   0.915  0.00  0.00     0.074 H 
ATOM      8  H8  <0> d          -0.612   3.800  -0.864  0.00  0.00     0.074 H 
BRANCH   6   9
ATOM      9  C5  <0> d          -2.557   4.017   0.036  0.00  0.00    -0.056 C 
ATOM     10  H9  <0> d          -2.514   5.106   0.042  0.00  0.00     0.030 H 
ATOM     11  H10 <0> d          -3.088   3.679  -0.853  0.00  0.00     0.030 H 
ATOM     12  H11 <0> d          -3.080   3.669   0.927  0.00  0.00     0.030 H 
ENDBRANCH   6   9
ENDBRANCH   5   6
ENDBRANCH   2   5
BRANCH   1  13
ATOM     13  C2  <0> d           1.281  -0.719  -0.014  0.00  0.00    -0.006 C 
ATOM     14  H4  <0> d           1.840  -0.443  -0.908  0.00  0.00     0.063 H 
ATOM     15  H5  <0> d           1.857  -0.453   0.872  0.00  0.00     0.063 H 
BRANCH  13  16
ATOM     16  C1  <0> d           1.021  -2.227  -0.020  0.00  0.00    -0.061 C 
ATOM     17  H1  <0> d           1.973  -2.759  -0.032  0.00  0.00     0.029 H 
ATOM     18  H2  <0> d           0.462  -2.503   0.874  0.00  0.00     0.029 H 
ATOM     19  H3  <0> d           0.445  -2.493  -0.906  0.00  0.00     0.029 H 
ENDBRANCH  13  16
ENDBRANCH   1  13
TORSDOF 5
