REMARK  1 active torsions:
REMARK  status: ('A' for Active; 'I' for Inactive)
REMARK    1  A    between atoms: C2_2  and  N2_8 
ROOT
ATOM      1  C1  <0> d           1.170   2.065   0.002  0.00  0.00    -0.018 A 
ATOM      2  C2  <0> d           1.101   3.456   0.010  0.00  0.00     0.046 A 
ATOM      3  C3  <0> d          -0.145   4.069   0.025  0.00  0.00     0.027 A 
ATOM      4  N1  <0> d          -1.249   3.349   0.032  0.00  0.00    -0.268 NA
ATOM      5  C4  <0> d          -1.220   2.031   0.019  0.00  0.00     0.039 A 
ATOM      6  C5  <0> d          -0.016   1.347   0.009  0.00  0.00     0.136 A 
ATOM      7  F1  <0> d           0.002  -0.004   0.002  0.00  0.00    -0.205 F 
ATOM      8  H1  <0> d           2.124   1.558  -0.009  0.00  0.00     0.091 H 
ATOM      9  H2  <0> d          -0.210   5.147   0.032  0.00  0.00     0.118 H 
ATOM     10  H3  <0> d          -2.148   1.478   0.020  0.00  0.00     0.119 H 
ENDROOT
BRANCH   2  11
ATOM     11  N2  <0> d           2.269   4.223   0.003  0.00  0.00    -0.398 N 
ATOM     12  H4  <0> d           3.135   3.788  -0.008  0.00  0.00     0.156 HD
ATOM     13  H5  <0> d           2.212   5.192   0.008  0.00  0.00     0.156 HD
ENDBRANCH   2  11
TORSDOF 1
