REMARK  4 active torsions:
REMARK  status: ('A' for Active; 'I' for Inactive)
REMARK    1  A    between atoms: C1_1  and  C2_2 
REMARK    2  A    between atoms: C4_6  and  C8_11 
REMARK    3  A    between atoms: C5_7  and  C6_8 
REMARK    4  A    between atoms: C6_8  and  C7_10 
ROOT
ATOM      1  C2  <0> d          -0.081  -0.008   0.011  0.00  0.00    -0.031 A 
ATOM      2  C3  <0> d          -0.141  -0.807  -1.068  0.00  0.00    -0.016 A 
ATOM      3  N1  <0> d           0.007  -2.105  -0.672  0.00  0.00    -0.368 N 
ATOM      4  H1  <0> d           0.000  -2.869  -1.270  0.00  0.00     0.165 HD
ATOM      5  C4  <0> d           0.166  -2.175   0.661  0.00  0.00     0.019 A 
ATOM      6  C5  <0> d           0.128  -0.889   1.167  0.00  0.00     0.039 A 
ATOM      7  H5  <0> d          -0.284  -0.475  -2.086  0.00  0.00     0.112 H 
ENDROOT
BRANCH   6   8
ATOM      8  C6  <0> d           0.265  -0.488   2.569  0.00  0.00     0.158 C 
ATOM      9  O1  <0> d          -0.722  -0.371   3.266  0.00  0.00    -0.293 OA
BRANCH   8  10
ATOM     10  C7  <0> d           1.630  -0.220   3.146  0.00  0.00    -0.017 C 
ATOM     11  H6  <0> d           2.378  -0.287   2.356  0.00  0.00     0.038 H 
ATOM     12  H7  <0> d           1.651   0.780   3.582  0.00  0.00     0.038 H 
ATOM     13  H8  <0> d           1.850  -0.957   3.919  0.00  0.00     0.038 H 
ENDBRANCH   8  10
ENDBRANCH   6   8
BRANCH   1  14
ATOM     14  C1  <0> d          -0.199   1.494   0.029  0.00  0.00    -0.049 C 
ATOM     15  H2  <0> d           0.790   1.938  -0.088  0.00  0.00     0.033 H 
ATOM     16  H3  <0> d          -0.842   1.819  -0.789  0.00  0.00     0.033 H 
ATOM     17  H4  <0> d          -0.629   1.813   0.978  0.00  0.00     0.033 H 
ENDBRANCH   1  14
BRANCH   5  18
ATOM     18  C8  <0> d           0.358  -3.436   1.464  0.00  0.00    -0.037 C 
ATOM     19  H9  <0> d           1.422  -3.656   1.545  0.00  0.00     0.035 H 
ATOM     20  H10 <0> d          -0.062  -3.299   2.461  0.00  0.00     0.035 H 
ATOM     21  H11 <0> d          -0.147  -4.263   0.967  0.00  0.00     0.035 H 
ENDBRANCH   5  18
TORSDOF 4
