REMARK  5 active torsions:
REMARK  status: ('A' for Active; 'I' for Inactive)
REMARK    1  A    between atoms: C1_1  and  C2_2 
REMARK    2  A    between atoms: C2_2  and  C3_3 
REMARK    3  A    between atoms: C5_7  and  C9_12 
REMARK    4  A    between atoms: C6_8  and  C7_9 
REMARK    5  A    between atoms: C7_9  and  C8_11 
ROOT
ATOM      1  C3  <0> d          -1.396  -0.575   0.000  0.00  0.00    -0.027 A 
ATOM      2  C4  <0> d          -2.105  -0.941   1.081  0.00  0.00    -0.016 A 
ATOM      3  N1  <0> d          -3.364  -1.294   0.693  0.00  0.00    -0.368 N 
ATOM      4  H1  <0> d          -4.064  -1.596   1.292  0.00  0.00     0.165 HD
ATOM      5  C5  <0> d          -3.498  -1.166  -0.639  0.00  0.00     0.019 A 
ATOM      6  C6  <0> d          -2.298  -0.709  -1.151  0.00  0.00     0.039 A 
ATOM      7  H7  <0> d          -1.736  -0.954   2.096  0.00  0.00     0.112 H 
ENDROOT
BRANCH   1   8
ATOM      8  C2  <0> d           0.038  -0.112  -0.025  0.00  0.00    -0.042 C 
ATOM      9  H5  <0> d           0.516  -0.459  -0.941  0.00  0.00     0.039 H 
ATOM     10  H6  <0> d           0.566  -0.518   0.837  0.00  0.00     0.039 H 
BRANCH   8  11
ATOM     11  C1  <0> d           0.081   1.417   0.024  0.00  0.00    -0.073 C 
ATOM     12  H2  <0> d           1.118   1.752   0.005  0.00  0.00     0.028 H 
ATOM     13  H3  <0> d          -0.447   1.823  -0.839  0.00  0.00     0.028 H 
ATOM     14  H4  <0> d          -0.397   1.765   0.940  0.00  0.00     0.028 H 
ENDBRANCH   8  11
ENDBRANCH   1   8
BRANCH   6  15
ATOM     15  C7  <0> d          -1.989  -0.421  -2.553  0.00  0.00     0.158 C 
ATOM     16  O1  <0> d          -2.147   0.699  -2.992  0.00  0.00    -0.293 OA
BRANCH  15  17
ATOM     17  C8  <0> d          -1.474  -1.516  -3.451  0.00  0.00    -0.017 C 
ATOM     18  H8  <0> d          -2.307  -1.961  -3.997  0.00  0.00     0.038 H 
ATOM     19  H9  <0> d          -0.758  -1.099  -4.159  0.00  0.00     0.038 H 
ATOM     20  H10 <0> d          -0.986  -2.281  -2.848  0.00  0.00     0.038 H 
ENDBRANCH  15  17
ENDBRANCH   6  15
BRANCH   5  21
ATOM     21  C9  <0> d          -4.743  -1.463  -1.436  0.00  0.00    -0.037 C 
ATOM     22  H11 <0> d          -5.386  -0.583  -1.445  0.00  0.00     0.035 H 
ATOM     23  H12 <0> d          -4.467  -1.723  -2.458  0.00  0.00     0.035 H 
ATOM     24  H13 <0> d          -5.275  -2.298  -0.980  0.00  0.00     0.035 H 
ENDBRANCH   5  21
TORSDOF 5
