REMARK  4 active torsions:
REMARK  status: ('A' for Active; 'I' for Inactive)
REMARK    1  A    between atoms: C1_1  and  C2_2 
REMARK    2  A    between atoms: C2_2  and  C3_3 
REMARK    3  A    between atoms: C2_2  and  N1_4 
REMARK    4  A    between atoms: N1_4  and  C4_5 
ROOT
ATOM      1  C2  <0> d          -0.019   1.526   0.010  0.00  0.00     0.004 C 
ATOM      2  H4  <0> d          -0.546   1.887  -0.873  0.00  0.00     0.071 H 
ENDROOT
BRANCH   1   3
ATOM      3  C1  <0> d           0.002  -0.004   0.002  0.00  0.00    -0.058 C 
ATOM      4  H1  <0> d           0.529  -0.365   0.885  0.00  0.00     0.030 H 
ATOM      5  H2  <0> d          -1.020  -0.381   0.010  0.00  0.00     0.030 H 
ATOM      6  H3  <0> d           0.512  -0.356  -0.895  0.00  0.00     0.030 H 
ENDBRANCH   1   3
BRANCH   1   7
ATOM      7  C3  <0> d           1.417   2.055  -0.000  0.00  0.00    -0.058 C 
ATOM      8  H5  <0> d           1.402   3.145   0.006  0.00  0.00     0.030 H 
ATOM      9  H6  <0> d           1.944   1.694   0.883  0.00  0.00     0.030 H 
ATOM     10  H7  <0> d           1.927   1.704  -0.897  0.00  0.00     0.030 H 
ENDBRANCH   1   7
BRANCH   1  11
ATOM     11  N1  <0> d          -0.704   1.998   1.216  0.00  0.00    -0.365 N 
ATOM     12  H8  <0> d          -0.737   1.437   2.006  0.00  0.00     0.162 HD
BRANCH  11  13
ATOM     13  C4  <0> d          -1.306   3.247   1.226  0.00  0.00     0.166 A 
ATOM     14  S1  <0> d          -2.171   4.030   2.512  0.00  0.00    -0.063 SA
ATOM     15  C6  <0> d          -2.562   5.542   1.643  0.00  0.00    -0.025 A 
ATOM     16  C5  <0> d          -1.987   5.297   0.441  0.00  0.00     0.011 A 
ATOM     17  H10 <0> d          -3.107   6.410   1.982  0.00  0.00     0.097 H 
ATOM     18  N2  <0> d          -1.363   4.148   0.264  0.00  0.00    -0.236 NA
ATOM     19  H9  <0> d          -2.034   6.029  -0.352  0.00  0.00     0.115 H 
ENDBRANCH  11  13
ENDBRANCH   1  11
TORSDOF 4
