REMARK  3 active torsions:
REMARK  status: ('A' for Active; 'I' for Inactive)
REMARK    1  A    between atoms: C1_1  and  C2_2 
REMARK    2  A    between atoms: N1_5  and  C5_7 
REMARK    3  A    between atoms: C5_7  and  C6_8 
ROOT
ATOM      1  C2  <0> d          -1.155   1.883   0.017  0.00  0.00     0.052 A 
ATOM      2  C3  <0> d          -0.013   1.076   0.008  0.00  0.00    -0.041 A 
ATOM      3  C4  <0> d           1.071   1.887   0.002  0.00  0.00     0.001 A 
ATOM      4  N1  <0> d           0.630   3.162   0.013  0.00  0.00    -0.276 N 
ATOM      5  N2  <0> d          -0.771   3.134   0.026  0.00  0.00    -0.178 NA
ATOM      6  H4  <0> d           0.002  -0.004   0.002  0.00  0.00     0.088 H 
ATOM      7  H5  <0> d           2.103   1.570  -0.010  0.00  0.00     0.114 H 
ENDROOT
BRANCH   4   8
ATOM      8  C5  <0> d           1.468   4.364   0.011  0.00  0.00     0.070 C 
ATOM      9  H6  <0> d           1.329   4.905   0.947  0.00  0.00     0.075 H 
ATOM     10  H7  <0> d           2.514   4.077  -0.090  0.00  0.00     0.075 H 
BRANCH   8  11
ATOM     11  C6  <0> d           1.069   5.262  -1.162  0.00  0.00     0.225 C 
ATOM     12  F1  <0> d          -0.238   5.722  -0.973  0.00  0.00    -0.213 F 
ATOM     13  F2  <0> d           1.942   6.352  -1.232  0.00  0.00    -0.213 F 
ATOM     14  H8  <0> d           1.123   4.692  -2.090  0.00  0.00     0.147 H 
ENDBRANCH   8  11
ENDBRANCH   4   8
BRANCH   1  15
ATOM     15  C1  <0> d          -2.581   1.397   0.020  0.00  0.00    -0.034 C 
ATOM     16  H1  <0> d          -2.921   1.274   1.049  0.00  0.00     0.035 H 
ATOM     17  H2  <0> d          -3.214   2.124  -0.487  0.00  0.00     0.035 H 
ATOM     18  H3  <0> d          -2.639   0.440  -0.498  0.00  0.00     0.035 H 
ENDBRANCH   1  15
TORSDOF 3
