REMARK  1 active torsions:
REMARK  status: ('A' for Active; 'I' for Inactive)
REMARK    1  A    between atoms: C1_1  and  N4_10 
ROOT
ATOM      1  C1  <0> d          -0.016   1.311   0.009  0.00  0.00     0.212 A 
ATOM      2  C2  <0> d           1.217   2.020   0.001  0.00  0.00     0.295 A 
ATOM      3  O1  <0> d           1.240   3.239   0.008  0.00  0.00    -0.264 OA
ATOM      4  N1  <0> d           2.363   1.301  -0.013  0.00  0.00    -0.281 N 
ATOM      5  H1  <0> d           3.226   1.743  -0.019  0.00  0.00     0.173 HD
ATOM      6  C3  <0> d           2.278  -0.059  -0.020  0.00  0.00     0.299 A 
ATOM      7  O2  <0> d           3.408  -0.798  -0.035  0.00  0.00    -0.147 OA
ATOM      8  N2  <0> d           1.108  -0.658  -0.012  0.00  0.00    -0.101 NA
ATOM      9  N3  <0> d           0.002  -0.004   0.002  0.00  0.00    -0.123 NA
ENDROOT
BRANCH   1  10
ATOM     10  N4  <0> d          -1.227   2.000   0.030  0.00  0.00    -0.378 N 
ATOM     11  H2  <0> d          -2.064   1.510   0.040  0.00  0.00     0.158 HD
ATOM     12  H3  <0> d          -1.233   2.970   0.035  0.00  0.00     0.158 HD
ENDBRANCH   1  10
TORSDOF 1
