REMARK  2 active torsions:
REMARK  status: ('A' for Active; 'I' for Inactive)
REMARK    1  A    between atoms: C1_1  and  C3_7 
REMARK    2  A    between atoms: C2_2  and  N3_6 
ROOT
ATOM      1  C1  <0> d          -2.595   1.087   0.020  0.00  0.00     0.209 A 
ATOM      2  C2  <0> d          -1.222   1.643   0.017  0.00  0.00     0.189 A 
ATOM      3  N1  <0> d          -1.439   2.938   0.031  0.00  0.00    -0.085 NA
ATOM      4  O1  <0> d          -2.629   3.148   0.032  0.00  0.00    -0.104 OA
ATOM      5  N2  <0> d          -3.341   2.171   0.030  0.00  0.00    -0.094 NA
ENDROOT
BRANCH   1   6
ATOM      6  C3  <0> d          -3.020  -0.330   0.014  0.00  0.00     0.235 C 
ATOM      7  O2  <0> d          -2.187  -1.214   0.005  0.00  0.00    -0.643 OA
ATOM      8  O3  <0> d          -4.331  -0.640   0.019  0.00  0.00    -0.643 OA
ENDBRANCH   1   6
BRANCH   2   9
ATOM      9  N3  <0> d          -0.011   0.966   0.007  0.00  0.00    -0.380 N 
ATOM     10  H1  <0> d           0.002  -0.004   0.002  0.00  0.00     0.158 HD
ATOM     11  H2  <0> d           0.822   1.462   0.002  0.00  0.00     0.158 HD
ENDBRANCH   2   9
TORSDOF 2
