REMARK  1 active torsions:
REMARK  status: ('A' for Active; 'I' for Inactive)
REMARK    1  A    between atoms: C3_4  and  C5_7 
ROOT
ATOM      1  C1  <0> d          -0.017   1.384   0.010  0.00  0.00    -0.049 A 
ATOM      2  C2  <0> d           1.194   2.063   0.002  0.00  0.00     0.006 A 
ATOM      3  N1  <0> d           2.320   1.372  -0.013  0.00  0.00    -0.236 NA
ATOM      4  C3  <0> d           2.302   0.047  -0.020  0.00  0.00     0.227 A 
ATOM      5  N2  <0> d           1.164  -0.632  -0.013  0.00  0.00    -0.236 NA
ATOM      6  C4  <0> d           0.002  -0.004   0.002  0.00  0.00     0.006 A 
ATOM      7  H1  <0> d          -0.952   1.923   0.017  0.00  0.00     0.087 H 
ATOM      8  H2  <0> d           1.215   3.143   0.007  0.00  0.00     0.114 H 
ATOM      9  H3  <0> d          -0.922  -0.564   0.007  0.00  0.00     0.114 H 
ENDROOT
BRANCH   4  10
ATOM     10  C5  <0> d           3.588  -0.694  -0.035  0.00  0.00     0.249 C 
ATOM     11  O1  <0> d           3.588  -1.908  -0.042  0.00  0.00    -0.642 OA
ATOM     12  O2  <0> d           4.753  -0.020  -0.043  0.00  0.00    -0.642 OA
ENDBRANCH   4  10
TORSDOF 1
