REMARK  9 active torsions:
REMARK  status: ('A' for Active; 'I' for Inactive)
REMARK    1  A    between atoms: C1_1  and  C2_2 
REMARK    2  A    between atoms: C1_1  and  O5_12 
REMARK    3  A    between atoms: C2_2  and  C3_4 
REMARK    4  A    between atoms: C2_2  and  O4_11 
REMARK    5  A    between atoms: C3_4  and  C4_5 
REMARK    6  A    between atoms: C3_4  and  O3_10 
REMARK    7  A    between atoms: C4_5  and  C5_7 
REMARK    8  A    between atoms: C4_5  and  O2_9 
REMARK    9  A    between atoms: C5_7  and  O1_8 
ROOT
ATOM      1  C3  <0> d          -1.429  -0.533  -0.113  0.00  0.00     0.089 C 
ATOM      2  H5  <0> d          -1.846  -0.245  -1.078  0.00  0.00     0.091 H 
ENDROOT
BRANCH   1   3
ATOM      3  C2  <0> d           0.002  -0.004   0.002  0.00  0.00     0.083 C 
ATOM      4  H1  <0> d           0.588  -0.355  -0.847  0.00  0.00     0.090 H 
BRANCH   3   5
ATOM      5  C1  <0> d          -0.019   1.526   0.010  0.00  0.00     0.043 C 
ATOM      6  H3  <0> d          -0.546   1.887  -0.873  0.00  0.00     0.078 H 
ATOM      7  H4  <0> d          -0.529   1.877   0.907  0.00  0.00     0.078 H 
BRANCH   5   8
ATOM      8  O5  <0> d           1.322   2.020   0.000  0.00  0.00    -0.398 OA
ATOM      9  H12 <0> d           1.385   2.985   0.005  0.00  0.00     0.209 HD
ENDBRANCH   5   8
ENDBRANCH   3   5
BRANCH   3  10
ATOM     10  O4  <0> d           0.590  -0.479   1.215  0.00  0.00    -0.391 OA
ATOM     11  H11 <0> d           0.119  -0.205   2.014  0.00  0.00     0.210 HD
ENDBRANCH   3  10
ENDBRANCH   1   3
BRANCH   1  12
ATOM     12  C4  <0> d          -1.420  -2.058   0.004  0.00  0.00     0.083 C 
ATOM     13  H2  <0> d          -1.002  -2.346   0.969  0.00  0.00     0.090 H 
BRANCH  12  14
ATOM     14  C5  <0> d          -2.851  -2.587  -0.111  0.00  0.00     0.043 C 
ATOM     15  H6  <0> d          -3.480  -2.098   0.633  0.00  0.00     0.078 H 
ATOM     16  H7  <0> d          -3.237  -2.377  -1.108  0.00  0.00     0.078 H 
BRANCH  14  17
ATOM     17  O1  <0> d          -2.857  -3.998   0.114  0.00  0.00    -0.398 OA
ATOM     18  H8  <0> d          -3.734  -4.402   0.056  0.00  0.00     0.209 HD
ENDBRANCH  14  17
ENDBRANCH  12  14
BRANCH  12  19
ATOM     19  O2  <0> d          -0.622  -2.612  -1.045  0.00  0.00    -0.391 OA
ATOM     20  H9  <0> d          -0.936  -2.395  -1.933  0.00  0.00     0.210 HD
ENDBRANCH  12  19
ENDBRANCH   1  12
BRANCH   1  21
ATOM     21  O3  <0> d          -2.227   0.020   0.936  0.00  0.00    -0.390 OA
ATOM     22  H10 <0> d          -1.913  -0.196   1.824  0.00  0.00     0.210 HD
ENDBRANCH   1  21
TORSDOF 9
