REMARK  2 active torsions:
REMARK  status: ('A' for Active; 'I' for Inactive)
REMARK    1  A    between atoms: C3_3  and  O2_10 
REMARK    2  A    between atoms: C7_7  and  O1_9 
ROOT
ATOM      1  C1  <0> d           2.008   1.472  -1.409  0.00  0.00    -0.060 C 
ATOM      2  C2  <0> d           1.423   1.615  -0.003  0.00  0.00    -0.041 C 
ATOM      3  C3  <0> d          -0.013   1.086   0.008  0.00  0.00     0.035 C 
ATOM      4  C4  <0> d          -0.753   1.592  -1.231  0.00  0.00    -0.041 C 
ATOM      5  C5  <0> d          -1.072   0.413  -2.153  0.00  0.00    -0.060 C 
ATOM      6  C6  <0> d           0.199  -0.015  -2.889  0.00  0.00    -0.041 C 
ATOM      7  C7  <0> d           1.103  -0.797  -1.935  0.00  0.00     0.035 C 
ATOM      8  C8  <0> d           2.375   0.008  -1.662  0.00  0.00    -0.041 C 
ATOM      9  H1  <0> d           1.271   1.794  -2.144  0.00  0.00     0.033 H 
ATOM     10  H2  <0> d           2.901   2.090  -1.496  0.00  0.00     0.033 H 
ATOM     11  H3  <0> d           1.425   2.666   0.286  0.00  0.00     0.036 H 
ATOM     12  H4  <0> d           2.026   1.044   0.702  0.00  0.00     0.036 H 
ATOM     13  H5  <0> d           0.002  -0.004   0.002  0.00  0.00     0.082 H 
ATOM     14  H6  <0> d          -1.681   2.077  -0.927  0.00  0.00     0.036 H 
ATOM     15  H7  <0> d          -0.127   2.309  -1.761  0.00  0.00     0.036 H 
ATOM     16  H8  <0> d          -1.829   0.713  -2.877  0.00  0.00     0.033 H 
ATOM     17  H9  <0> d          -1.446  -0.421  -1.559  0.00  0.00     0.033 H 
ATOM     18  H10 <0> d           0.727   0.870  -3.247  0.00  0.00     0.036 H 
ATOM     19  H11 <0> d          -0.068  -0.646  -3.737  0.00  0.00     0.036 H 
ATOM     20  H12 <0> d           0.576  -0.972  -0.997  0.00  0.00     0.082 H 
ATOM     21  H13 <0> d           3.038  -0.057  -2.525  0.00  0.00     0.036 H 
ATOM     22  H14 <0> d           2.880  -0.397  -0.785  0.00  0.00     0.036 H 
ENDROOT
BRANCH   3  23
ATOM     23  O2  <0> d          -0.681   1.546   1.184  0.00  0.00    -0.396 OA
ATOM     24  H16 <0> d          -1.598   1.248   1.257  0.00  0.00     0.210 HD
ENDBRANCH   3  23
BRANCH   7  25
ATOM     25  O1  <0> d           1.450  -2.050  -2.528  0.00  0.00    -0.396 OA
ATOM     26  H15 <0> d           0.691  -2.614  -2.729  0.00  0.00     0.210 HD
ENDBRANCH   7  25
TORSDOF 2
