REMARK  8 active torsions:
REMARK  status: ('A' for Active; 'I' for Inactive)
REMARK    1  A    between atoms: C1_1  and  C2_2 
REMARK    2  A    between atoms: C2_2  and  C3_3 
REMARK    3  A    between atoms: C2_2  and  C4_4 
REMARK    4  A    between atoms: C2_2  and  C5_5 
REMARK    5  A    between atoms: C5_5  and  C6_6 
REMARK    6  A    between atoms: C5_5  and  C7_7 
REMARK    7  A    between atoms: C5_5  and  C8_8 
REMARK    8  A    between atoms: C8_8  and  C9_9 
REMARK       I    between atoms: C9_9  and  N1_11 
ROOT
ATOM      1  C5  <0> d          -2.657   3.621   0.034  0.00  0.00    -0.033 C 
ENDROOT
BRANCH   1   2
ATOM      2  C2  <0> d          -2.678   5.151   0.043  0.00  0.00    -0.044 C 
BRANCH   2   3
ATOM      3  C1  <0> d          -1.969   5.677  -1.207  0.00  0.00    -0.069 C 
ATOM      4  H1  <0> d          -2.482   5.312  -2.097  0.00  0.00     0.028 H 
ATOM      5  H2  <0> d          -1.984   6.767  -1.201  0.00  0.00     0.028 H 
ATOM      6  H3  <0> d          -0.937   5.328  -1.214  0.00  0.00     0.028 H 
ENDBRANCH   2   3
BRANCH   2   7
ATOM      7  C3  <0> d          -4.127   5.641   0.052  0.00  0.00    -0.069 C 
ATOM      8  H4  <0> d          -4.632   5.266   0.943  0.00  0.00     0.028 H 
ATOM      9  H5  <0> d          -4.142   6.731   0.058  0.00  0.00     0.028 H 
ATOM     10  H6  <0> d          -4.640   5.276  -0.837  0.00  0.00     0.028 H 
ENDBRANCH   2   7
BRANCH   2  11
ATOM     11  C4  <0> d          -1.958   5.664   1.291  0.00  0.00    -0.069 C 
ATOM     12  H7  <0> d          -0.925   5.314   1.285  0.00  0.00     0.028 H 
ATOM     13  H8  <0> d          -1.972   6.754   1.297  0.00  0.00     0.028 H 
ATOM     14  H9  <0> d          -2.462   5.289   2.182  0.00  0.00     0.028 H 
ENDBRANCH   2  11
ENDBRANCH   1   2
BRANCH   1  15
ATOM     15  C6  <0> d          -3.377   3.108  -1.214  0.00  0.00    -0.068 C 
ATOM     16  H10 <0> d          -3.362   2.018  -1.220  0.00  0.00     0.028 H 
ATOM     17  H11 <0> d          -4.410   3.457  -1.208  0.00  0.00     0.028 H 
ATOM     18  H12 <0> d          -2.873   3.483  -2.105  0.00  0.00     0.028 H 
ENDBRANCH   1  15
BRANCH   1  19
ATOM     19  C7  <0> d          -3.365   3.094   1.284  0.00  0.00    -0.068 C 
ATOM     20  H13 <0> d          -2.852   3.460   2.174  0.00  0.00     0.028 H 
ATOM     21  H14 <0> d          -4.398   3.444   1.291  0.00  0.00     0.028 H 
ATOM     22  H15 <0> d          -3.351   2.005   1.278  0.00  0.00     0.028 H 
ENDBRANCH   1  19
BRANCH   1  23
ATOM     23  C8  <0> d          -1.208   3.131   0.025  0.00  0.00     0.016 C 
ATOM     24  H16 <0> d          -0.695   3.496   0.914  0.00  0.00     0.048 H 
ATOM     25  H17 <0> d          -0.703   3.506  -0.866  0.00  0.00     0.048 H 
BRANCH  23  26
ATOM     26  C9  <0> d          -1.187   1.624   0.017  0.00  0.00     0.216 C 
ATOM     27  O1  <0> d          -2.229   1.003   0.018  0.00  0.00    -0.274 OA
ATOM     28  N1  <0> d          -0.011   0.966   0.007  0.00  0.00    -0.370 N 
ATOM     29  H18 <0> d           0.002  -0.004   0.002  0.00  0.00     0.159 HD
ATOM     30  H19 <0> d           0.822   1.462   0.002  0.00  0.00     0.159 HD
ENDBRANCH  23  26
ENDBRANCH   1  23
TORSDOF 8
