REMARK  4 active torsions:
REMARK  status: ('A' for Active; 'I' for Inactive)
REMARK    1  A    between atoms: C1_1  and  O1_2 
REMARK    2  A    between atoms: O1_2  and  C2_3 
REMARK    3  A    between atoms: C6_7  and  C8_10 
REMARK    4  A    between atoms: C8_10  and  O2_11 
ROOT
ATOM      1  C2  <0> d           2.146   5.244   0.010  0.00  0.00     0.107 A 
ATOM      2  C3  <0> d           0.884   5.819   0.025  0.00  0.00    -0.048 A 
ATOM      3  C4  <0> d          -0.240   5.016   0.032  0.00  0.00    -0.080 A 
ATOM      4  C5  <0> d          -0.109   3.639   0.023  0.00  0.00    -0.072 A 
ATOM      5  C6  <0> d           1.147   3.062   0.008  0.00  0.00     0.007 A 
ATOM      6  C7  <0> d           2.276   3.861   0.007  0.00  0.00     0.158 A 
ATOM      7  F1  <0> d           3.504   3.298  -0.002  0.00  0.00    -0.203 F 
ATOM      8  H4  <0> d           0.780   6.894   0.033  0.00  0.00     0.087 H 
ATOM      9  H5  <0> d          -1.223   5.464   0.043  0.00  0.00     0.083 H 
ATOM     10  H6  <0> d          -0.990   3.014   0.027  0.00  0.00     0.084 H 
ENDROOT
BRANCH   1  11
ATOM     11  O1  <0> d           3.253   6.033   0.003  0.00  0.00    -0.353 OA
BRANCH  11  12
ATOM     12  C1  <0> d           3.043   7.446   0.013  0.00  0.00     0.011 C 
ATOM     13  H1  <0> d           4.006   7.957   0.006  0.00  0.00     0.066 H 
ATOM     14  H2  <0> d           2.473   7.735  -0.871  0.00  0.00     0.066 H 
ATOM     15  H3  <0> d           2.490   7.726   0.909  0.00  0.00     0.066 H 
ENDBRANCH  11  12
ENDBRANCH   1  11
BRANCH   5  16
ATOM     16  C8  <0> d           1.286   1.562  -0.002  0.00  0.00     0.043 C 
ATOM     17  H7  <0> d           1.840   1.243   0.881  0.00  0.00     0.081 H 
ATOM     18  H8  <0> d           1.823   1.252  -0.899  0.00  0.00     0.081 H 
BRANCH  16  19
ATOM     19  O2  <0> d          -0.011   0.963   0.007  0.00  0.00    -0.396 OA
ATOM     20  H9  <0> d           0.002  -0.004   0.002  0.00  0.00     0.209 HD
ENDBRANCH  16  19
ENDBRANCH   5  16
TORSDOF 4
