REMARK  4 active torsions:
REMARK  status: ('A' for Active; 'I' for Inactive)
REMARK    1  A    between atoms: C1_1  and  C2_2 
REMARK    2  A    between atoms: C2_2  and  C3_4 
REMARK    3  A    between atoms: C2_2  and  N1_7 
REMARK    4  A    between atoms: C6_8  and  N3_12 
ROOT
ATOM      1  C2  <0> d           1.800  -1.818  -0.025  0.00  0.00     0.036 C 
ATOM      2  H1  <0> d           2.890  -1.837  -0.035  0.00  0.00     0.076 H 
ENDROOT
BRANCH   1   3
ATOM      3  C1  <0> d           1.289  -2.536   1.225  0.00  0.00    -0.055 C 
ATOM      4  H2  <0> d           1.669  -2.034   2.115  0.00  0.00     0.030 H 
ATOM      5  H3  <0> d           0.199  -2.517   1.235  0.00  0.00     0.030 H 
ATOM      6  H4  <0> d           1.633  -3.570   1.216  0.00  0.00     0.030 H 
ENDBRANCH   1   3
BRANCH   1   7
ATOM      7  C3  <0> d           1.266  -2.523  -1.273  0.00  0.00    -0.033 A 
ATOM      8  C5  <0> d           1.668  -1.951  -2.634  0.00  0.00    -0.059 A 
ATOM      9  C4  <0> d           2.274  -3.269  -2.149  0.00  0.00    -0.059 A 
ATOM     10  H8  <0> d           0.933  -2.000  -3.438  0.00  0.00     0.033 H 
ATOM     11  H9  <0> d           2.313  -1.072  -2.640  0.00  0.00     0.033 H 
ATOM     12  H6  <0> d           3.318  -3.258  -1.836  0.00  0.00     0.033 H 
ATOM     13  H7  <0> d           1.938  -4.186  -2.634  0.00  0.00     0.033 H 
ATOM     14  H5  <0> d           0.266  -2.948  -1.181  0.00  0.00     0.043 H 
ENDBRANCH   1   7
BRANCH   1  15
ATOM     15  N1  <0> d           1.337  -0.428  -0.013  0.00  0.00    -0.250 N 
ATOM     16  N2  <0> d           0.002  -0.004   0.002  0.00  0.00    -0.183 NA
ATOM     17  C8  <0> d          -0.016   1.304   0.009  0.00  0.00     0.025 A 
ATOM     18  C7  <0> d           1.305   1.762  -0.001  0.00  0.00    -0.021 A 
ATOM     19  H11 <0> d          -0.900   1.925   0.017  0.00  0.00     0.117 H 
ATOM     20  C6  <0> d           2.123   0.673  -0.015  0.00  0.00     0.119 A 
ATOM     21  H10 <0> d           1.621   2.795   0.002  0.00  0.00     0.091 H 
BRANCH  20  22
ATOM     22  N3  <0> d           3.515   0.690  -0.028  0.00  0.00    -0.384 N 
ATOM     23  H12 <0> d           4.010  -0.144  -0.037  0.00  0.00     0.157 HD
ATOM     24  H13 <0> d           3.990   1.536  -0.028  0.00  0.00     0.157 HD
ENDBRANCH  20  22
ENDBRANCH   1  15
TORSDOF 4
