REMARK  3 active torsions:
REMARK  status: ('A' for Active; 'I' for Inactive)
REMARK    1  A    between atoms: C1_1  and  C2_2 
REMARK    2  A    between atoms: C6_7  and  C7_8 
REMARK    3  A    between atoms: C7_8  and  C8_10 
ROOT
ATOM      1  C2  <0> d          -0.076   3.803   0.069  0.00  0.00    -0.029 A 
ATOM      2  C3  <0> d          -1.238   3.082   0.296  0.00  0.00    -0.073 A 
ATOM      3  C4  <0> d          -1.182   1.699   0.227  0.00  0.00    -0.065 A 
ATOM      4  C5  <0> d           0.027   1.080  -0.054  0.00  0.00     0.003 A 
ATOM      5  N1  <0> d           1.115   1.786  -0.266  0.00  0.00    -0.257 NA
ATOM      6  C6  <0> d           1.104   3.114  -0.214  0.00  0.00     0.107 A 
ATOM      7  H4  <0> d          -2.167   3.587   0.517  0.00  0.00     0.084 H 
ATOM      8  H5  <0> d          -2.071   1.109   0.395  0.00  0.00     0.085 H 
ATOM      9  H6  <0> d           0.074   0.002  -0.105  0.00  0.00     0.114 H 
ENDROOT
BRANCH   6  10
ATOM     10  C7  <0> d           2.350   3.866  -0.457  0.00  0.00     0.174 C 
ATOM     11  O1  <0> d           2.323   5.076  -0.529  0.00  0.00    -0.291 OA
BRANCH  10  12
ATOM     12  C8  <0> d           3.655   3.130  -0.617  0.00  0.00    -0.015 C 
ATOM     13  H7  <0> d           4.465   3.854  -0.790  0.00  0.00     0.038 H 
ATOM     14  H8  <0> d           3.587   2.444  -1.474  0.00  0.00     0.038 H 
ATOM     15  H9  <0> d           3.866   2.556   0.297  0.00  0.00     0.038 H 
ENDBRANCH  10  12
ENDBRANCH   6  10
BRANCH   1  16
ATOM     16  C1  <0> d          -0.087   5.309   0.128  0.00  0.00    -0.049 C 
ATOM     17  H1  <0> d          -1.103   5.659   0.363  0.00  0.00     0.033 H 
ATOM     18  H2  <0> d           0.226   5.716  -0.845  0.00  0.00     0.033 H 
ATOM     19  H3  <0> d           0.608   5.650   0.909  0.00  0.00     0.033 H 
ENDBRANCH   1  16
TORSDOF 3
