REMARK  7 active torsions:
REMARK  status: ('A' for Active; 'I' for Inactive)
REMARK    1  A    between atoms: C1_1  and  C2_2 
REMARK    2  A    between atoms: C2_2  and  C3_4 
REMARK    3  A    between atoms: C2_2  and  N1_8 
REMARK    4  A    between atoms: C3_4  and  C4_5 
REMARK    5  A    between atoms: C3_4  and  C5_6 
REMARK    6  A    between atoms: C3_4  and  O1_7 
REMARK       I    between atoms: N1_8  and  C6_9 
REMARK    7  A    between atoms: C6_9  and  C7_11 
ROOT
ATOM      1  C2  <0> d          -1.290   1.681   0.017  0.00  0.00     0.037 C 
ATOM      2  H1  <0> d          -1.198   2.596  -0.568  0.00  0.00     0.076 H 
ENDROOT
BRANCH   1   3
ATOM      3  C1  <0> d          -1.667   2.032   1.458  0.00  0.00    -0.055 C 
ATOM      4  H2  <0> d          -1.758   1.117   2.043  0.00  0.00     0.030 H 
ATOM      5  H3  <0> d          -0.893   2.665   1.892  0.00  0.00     0.030 H 
ATOM      6  H4  <0> d          -2.618   2.564   1.465  0.00  0.00     0.030 H 
ENDBRANCH   1   3
BRANCH   1   7
ATOM      7  C3  <0> d          -2.376   0.792  -0.592  0.00  0.00     0.070 C 
BRANCH   7   8
ATOM      8  C4  <0> d          -3.682   1.582  -0.696  0.00  0.00    -0.046 C 
ATOM      9  H5  <0> d          -3.529   2.455  -1.330  0.00  0.00     0.031 H 
ATOM     10  H6  <0> d          -4.456   0.949  -1.130  0.00  0.00     0.031 H 
ATOM     11  H7  <0> d          -3.992   1.905   0.298  0.00  0.00     0.031 H 
ENDBRANCH   7   8
BRANCH   7  12
ATOM     12  C5  <0> d          -1.941   0.339  -1.987  0.00  0.00    -0.046 C 
ATOM     13  H8  <0> d          -1.010  -0.223  -1.913  0.00  0.00     0.031 H 
ATOM     14  H9  <0> d          -2.715  -0.294  -2.421  0.00  0.00     0.031 H 
ATOM     15  H10 <0> d          -1.788   1.213  -2.621  0.00  0.00     0.031 H 
ENDBRANCH   7  12
BRANCH   7  16
ATOM     16  O1  <0> d          -2.577  -0.352   0.239  0.00  0.00    -0.389 OA
ATOM     17  H11 <0> d          -3.253  -0.962  -0.087  0.00  0.00     0.210 HD
ENDBRANCH   7  16
ENDBRANCH   1   7
BRANCH   1  18
ATOM     18  N1  <0> d          -0.011   0.966   0.007  0.00  0.00    -0.354 N 
ATOM     19  C6  <0> d           1.147   1.655  -0.000  0.00  0.00     0.214 C 
ATOM     20  O2  <0> d           1.130   2.868   0.007  0.00  0.00    -0.274 OA
ATOM     21  H12 <0> d           0.002  -0.004   0.002  0.00  0.00     0.162 HD
BRANCH  19  22
ATOM     22  C7  <0> d           2.462   0.920  -0.017  0.00  0.00    -0.003 C 
ATOM     23  H13 <0> d           2.769   0.748  -1.048  0.00  0.00     0.040 H 
ATOM     24  H14 <0> d           3.218   1.516   0.493  0.00  0.00     0.040 H 
ATOM     25  H15 <0> d           2.349  -0.037   0.493  0.00  0.00     0.040 H 
ENDBRANCH  19  22
ENDBRANCH   1  18
TORSDOF 7
