REMARK  2 active torsions:
REMARK  status: ('A' for Active; 'I' for Inactive)
REMARK    1  A    between atoms: C3_3  and  C7_10 
REMARK    2  A    between atoms: C5_6  and  C6_8 
ROOT
ATOM      1  C1  <0> d           1.408   2.807   1.293  0.00  0.00    -0.052 C 
ATOM      2  C2  <0> d           2.915   2.734   1.645  0.00  0.00    -0.052 C 
ATOM      3  C3  <0> d           3.284   1.278   1.267  0.00  0.00     0.031 C 
ATOM      4  H1  <0> d           2.989   0.590   2.059  0.00  0.00     0.056 H 
ATOM      5  C4  <0> d           2.473   1.003  -0.016  0.00  0.00    -0.040 C 
ATOM      6  C5  <0> d           1.280   1.975   0.000  0.00  0.00     0.031 C 
ATOM      7  H2  <0> d           1.320   2.629  -0.871  0.00  0.00     0.056 H 
ATOM      8  H3  <0> d           1.108   3.840   1.114  0.00  0.00     0.034 H 
ATOM      9  H4  <0> d           0.809   2.368   2.091  0.00  0.00     0.034 H 
ATOM     10  H5  <0> d           3.072   2.909   2.709  0.00  0.00     0.034 H 
ATOM     11  H6  <0> d           3.488   3.445   1.049  0.00  0.00     0.034 H 
ATOM     12  H7  <0> d           2.115  -0.027  -0.018  0.00  0.00     0.035 H 
ATOM     13  H8  <0> d           3.091   1.186  -0.895  0.00  0.00     0.035 H 
ENDROOT
BRANCH   3  14
ATOM     14  C7  <0> d           4.761   1.163   0.993  0.00  0.00     0.177 C 
ATOM     15  O2  <0> d           5.149   0.887  -0.118  0.00  0.00    -0.648 OA
ATOM     16  O4  <0> d           5.645   1.366   1.982  0.00  0.00    -0.648 OA
ENDBRANCH   3  14
BRANCH   6  17
ATOM     17  C6  <0> d          -0.014   1.204   0.009  0.00  0.00     0.177 C 
ATOM     18  O1  <0> d           0.002  -0.004   0.002  0.00  0.00    -0.648 OA
ATOM     19  O3  <0> d          -1.186   1.859   0.018  0.00  0.00    -0.648 OA
ENDBRANCH   6  17
TORSDOF 2
