REMARK  4 active torsions:
REMARK  status: ('A' for Active; 'I' for Inactive)
REMARK    1  A    between atoms: C2_2  and  C4_7 
REMARK    2  A    between atoms: C4_7  and  C5_8 
REMARK    3  A    between atoms: C5_8  and  C6_9 
REMARK    4  A    between atoms: C6_9  and  O1_10 
ROOT
ATOM      1  C4  <0> d           1.810  -1.793  -0.025  0.00  0.00    -0.021 C 
ATOM      2  H4  <0> d           2.352  -1.991   0.900  0.00  0.00     0.042 H 
ATOM      3  H5  <0> d           0.971  -2.483  -0.110  0.00  0.00     0.042 H 
ENDROOT
BRANCH   1   4
ATOM      4  C2  <0> d           1.296  -0.376  -0.012  0.00  0.00     0.051 A 
ATOM      5  C1  <0> d           0.002  -0.004   0.002  0.00  0.00     0.002 A 
ATOM      6  N2  <0> d          -0.017   1.365   0.009  0.00  0.00    -0.359 N 
ATOM      7  H2  <0> d          -0.856  -0.660   0.007  0.00  0.00     0.114 H 
ATOM      8  C3  <0> d           1.268   1.782  -0.001  0.00  0.00     0.064 A 
ATOM      9  H1  <0> d          -0.829   1.947   0.020  0.00  0.00     0.166 HD
ATOM     10  N1  <0> d           2.047   0.735  -0.013  0.00  0.00    -0.247 NA
ATOM     11  H3  <0> d           1.596   2.811   0.002  0.00  0.00     0.143 H 
ENDBRANCH   1   4
BRANCH   1  12
ATOM     12  C5  <0> d           2.751  -1.983  -1.217  0.00  0.00    -0.040 C 
ATOM     13  H6  <0> d           2.210  -1.785  -2.142  0.00  0.00     0.036 H 
ATOM     14  H7  <0> d           3.590  -1.293  -1.131  0.00  0.00     0.036 H 
BRANCH  12  15
ATOM     15  C6  <0> d           3.273  -3.421  -1.229  0.00  0.00     0.017 C 
ATOM     16  H8  <0> d           3.814  -3.620  -0.304  0.00  0.00     0.073 H 
ATOM     17  H9  <0> d           2.434  -4.112  -1.315  0.00  0.00     0.073 H 
BRANCH  15  18
ATOM     18  O1  <0> d           4.151  -3.600  -2.342  0.00  0.00    -0.401 OA
ATOM     19  H10 <0> d           4.521  -4.490  -2.413  0.00  0.00     0.209 HD
ENDBRANCH  15  18
ENDBRANCH  12  15
ENDBRANCH   1  12
TORSDOF 4
