REMARK  5 active torsions:
REMARK  status: ('A' for Active; 'I' for Inactive)
REMARK    1  A    between atoms: C1_1  and  C2_2 
REMARK    2  A    between atoms: C2_2  and  O1_3 
REMARK    3  A    between atoms: O1_3  and  C3_4 
REMARK    4  A    between atoms: C3_4  and  C4_6 
REMARK    5  A    between atoms: C7_9  and  C8_12 
ROOT
ATOM      1  C4  <0> d          -1.091   2.257   3.322  0.00  0.00     0.108 A 
ATOM      2  C5  <0> d          -2.301   2.250   2.657  0.00  0.00    -0.049 A 
ATOM      3  C6  <0> d          -2.046   1.821   1.351  0.00  0.00    -0.059 A 
ATOM      4  C7  <0> d          -0.718   1.572   1.248  0.00  0.00     0.005 A 
ATOM      5  N1  <0> d          -0.128   1.835   2.433  0.00  0.00    -0.355 N 
ATOM      6  H1  <0> d           0.818   1.742   2.627  0.00  0.00     0.166 HD
ATOM      7  H7  <0> d          -3.261   2.526   3.067  0.00  0.00     0.087 H 
ATOM      8  H8  <0> d          -2.777   1.707   0.565  0.00  0.00     0.086 H 
ENDROOT
BRANCH   1   9
ATOM      9  C3  <0> d          -0.873   2.643   4.718  0.00  0.00     0.310 C 
ATOM     10  O2  <0> d          -1.811   3.000   5.405  0.00  0.00    -0.258 OA
BRANCH   9  11
ATOM     11  O1  <0> d           0.370   2.602   5.242  0.00  0.00    -0.317 OA
BRANCH  11  12
ATOM     12  C2  <0> d           0.512   2.999   6.632  0.00  0.00     0.026 C 
ATOM     13  H5  <0> d           0.177   4.029   6.752  0.00  0.00     0.074 H 
ATOM     14  H6  <0> d          -0.092   2.344   7.260  0.00  0.00     0.074 H 
BRANCH  12  15
ATOM     15  C1  <0> d           1.981   2.889   7.045  0.00  0.00    -0.056 C 
ATOM     16  H2  <0> d           2.317   1.859   6.925  0.00  0.00     0.030 H 
ATOM     17  H3  <0> d           2.586   3.543   6.417  0.00  0.00     0.030 H 
ATOM     18  H4  <0> d           2.088   3.186   8.088  0.00  0.00     0.030 H 
ENDBRANCH  12  15
ENDBRANCH  11  12
ENDBRANCH   9  11
ENDBRANCH   1   9
BRANCH   4  19
ATOM     19  C8  <0> d          -0.013   1.086   0.008  0.00  0.00    -0.037 C 
ATOM     20  H9  <0> d           0.002  -0.004   0.002  0.00  0.00     0.035 H 
ATOM     21  H10 <0> d           1.010   1.463   0.000  0.00  0.00     0.035 H 
ATOM     22  H11 <0> d          -0.540   1.447  -0.875  0.00  0.00     0.035 H 
ENDBRANCH   4  19
TORSDOF 5
