REMARK  0 active torsions:
REMARK  status: ('A' for Active; 'I' for Inactive)
ROOT
ATOM      1  C1  <0> d          -0.018   1.504   0.010  0.00  0.00    -0.063 C 
ATOM      2  C2  <0> d           1.324   2.196   0.001  0.00  0.00    -0.059 C 
ATOM      3  C3  <0> d           2.000   2.062  -1.373  0.00  0.00    -0.007 C 
ATOM      4  C4  <0> d           2.603   0.670  -1.435  0.00  0.00     0.148 A 
ATOM      5  N1  <0> d           3.863   0.345  -1.500  0.00  0.00    -0.114 NA
ATOM      6  N2  <0> d           3.930  -0.945  -1.535  0.00  0.00    -0.023 NA
ATOM      7  N3  <0> d           2.737  -1.438  -1.495  0.00  0.00    -0.044 NA
ATOM      8  N4  <0> d           1.900  -0.467  -1.433  0.00  0.00    -0.234 N 
ATOM      9  C5  <0> d           0.427  -0.546  -1.370  0.00  0.00     0.020 C 
ATOM     10  C6  <0> d           0.002  -0.004   0.002  0.00  0.00    -0.048 C 
ATOM     11  H1  <0> d          -0.560   1.830   0.898  0.00  0.00     0.033 H 
ATOM     12  H2  <0> d          -0.577   1.840  -0.864  0.00  0.00     0.033 H 
ATOM     13  H3  <0> d           1.185   3.252   0.231  0.00  0.00     0.033 H 
ATOM     14  H4  <0> d           1.964   1.746   0.761  0.00  0.00     0.033 H 
ATOM     15  H5  <0> d           1.260   2.183  -2.164  0.00  0.00     0.044 H 
ATOM     16  H6  <0> d           2.784   2.812  -1.476  0.00  0.00     0.044 H 
ATOM     17  H7  <0> d          -0.012   0.061  -2.161  0.00  0.00     0.067 H 
ATOM     18  H8  <0> d           0.106  -1.583  -1.475  0.00  0.00     0.067 H 
ATOM     19  H9  <0> d           0.704  -0.356   0.758  0.00  0.00     0.035 H 
ATOM     20  H10 <0> d          -0.994  -0.376   0.240  0.00  0.00     0.035 H 
ENDROOT
TORSDOF 0
