REMARK  5 active torsions:
REMARK  status: ('A' for Active; 'I' for Inactive)
REMARK    1  A    between atoms: C1_2  and  C2_5 
REMARK    2  A    between atoms: C2_5  and  C5_10 
REMARK    3  A    between atoms: C5_10  and  C6_13 
REMARK    4  A    between atoms: C6_13  and  C7_16 
REMARK    5  A    between atoms: C7_16  and  O3_17 
ROOT
ATOM      1  C2  <0> d          -0.729   1.579   1.267  0.00  0.00     0.160 C 
ATOM      2  O1  <0> d          -2.079   1.085   1.280  0.00  0.00    -0.353 OA
ATOM      3  C3  <0> d          -2.025  -0.116   2.087  0.00  0.00     0.043 C 
ATOM      4  C4  <0> d          -0.982   0.275   3.164  0.00  0.00     0.043 C 
ATOM      5  O2  <0> d          -0.048   1.093   2.431  0.00  0.00    -0.353 OA
ATOM      6  H9  <0> d          -2.994  -0.324   2.541  0.00  0.00     0.077 H 
ATOM      7  H10 <0> d          -1.680  -0.966   1.500  0.00  0.00     0.077 H 
ATOM      8  H11 <0> d          -1.450   0.848   3.964  0.00  0.00     0.077 H 
ATOM      9  H12 <0> d          -0.488  -0.612   3.562  0.00  0.00     0.077 H 
ENDROOT
BRANCH   1  10
ATOM     10  C1  <0> d          -0.013   1.086   0.008  0.00  0.00    -0.025 C 
ATOM     11  H1  <0> d           0.002  -0.004   0.002  0.00  0.00     0.035 H 
ATOM     12  H2  <0> d           1.010   1.463   0.000  0.00  0.00     0.035 H 
ATOM     13  H3  <0> d          -0.540   1.447  -0.875  0.00  0.00     0.035 H 
ENDBRANCH   1  10
BRANCH   1  14
ATOM     14  C5  <0> d          -0.745   3.109   1.283  0.00  0.00    -0.011 C 
ATOM     15  H4  <0> d           0.279   3.483   1.278  0.00  0.00     0.041 H 
ATOM     16  H5  <0> d          -1.270   3.476   0.401  0.00  0.00     0.041 H 
BRANCH  14  17
ATOM     17  C6  <0> d          -1.462   3.599   2.543  0.00  0.00    -0.041 C 
ATOM     18  H6  <0> d          -2.486   3.224   2.547  0.00  0.00     0.036 H 
ATOM     19  H7  <0> d          -0.937   3.232   3.425  0.00  0.00     0.036 H 
BRANCH  17  20
ATOM     20  C7  <0> d          -1.478   5.128   2.558  0.00  0.00     0.017 C 
ATOM     21  H13 <0> d          -0.454   5.503   2.554  0.00  0.00     0.073 H 
ATOM     22  H14 <0> d          -2.002   5.495   1.676  0.00  0.00     0.073 H 
BRANCH  20  23
ATOM     23  O3  <0> d          -2.147   5.585   3.735  0.00  0.00    -0.401 OA
ATOM     24  H8  <0> d          -2.195   6.548   3.812  0.00  0.00     0.209 HD
ENDBRANCH  20  23
ENDBRANCH  17  20
ENDBRANCH  14  17
ENDBRANCH   1  14
TORSDOF 5
