REMARK  4 active torsions:
REMARK  status: ('A' for Active; 'I' for Inactive)
REMARK    1  A    between atoms: C1_1  and  O1_2 
REMARK    2  A    between atoms: O1_2  and  C2_3 
REMARK    3  A    between atoms: C2_3  and  S1_4 
REMARK    4  A    between atoms: S1_4  and  C3_5 
ROOT
ATOM      1  C3  <0> d          -0.050   3.843   0.023  0.00  0.00     0.002 A 
ATOM      2  C4  <0> d           1.162   3.163   0.008  0.00  0.00    -0.067 A 
ATOM      3  C5  <0> d           1.177   1.782   0.000  0.00  0.00    -0.082 A 
ATOM      4  C6  <0> d          -0.013   1.076   0.008  0.00  0.00    -0.083 A 
ATOM      5  C7  <0> d          -1.220   1.749   0.017  0.00  0.00    -0.082 A 
ATOM      6  C8  <0> d          -1.243   3.130   0.031  0.00  0.00    -0.067 A 
ATOM      7  H6  <0> d           2.091   3.713   0.002  0.00  0.00     0.085 H 
ATOM      8  H7  <0> d           2.118   1.253  -0.012  0.00  0.00     0.083 H 
ATOM      9  H8  <0> d           0.002  -0.004   0.002  0.00  0.00     0.083 H 
ATOM     10  H9  <0> d          -2.147   1.195   0.019  0.00  0.00     0.083 H 
ATOM     11  H10 <0> d          -2.187   3.655   0.043  0.00  0.00     0.085 H 
ENDROOT
BRANCH   1  12
ATOM     12  S1  <0> d          -0.074   5.604   0.032  0.00  0.00    -0.104 SA
BRANCH  12  13
ATOM     13  C2  <0> d          -1.840   6.019   0.052  0.00  0.00     0.064 C 
ATOM     14  H4  <0> d          -1.969   7.070  -0.208  0.00  0.00     0.091 H 
ATOM     15  H5  <0> d          -2.367   5.399  -0.673  0.00  0.00     0.091 H 
BRANCH  13  16
ATOM     16  O1  <0> d          -2.371   5.782   1.357  0.00  0.00    -0.386 OA
BRANCH  16  17
ATOM     17  C1  <0> d          -2.000   6.768   2.323  0.00  0.00     0.005 C 
ATOM     18  H1  <0> d          -2.361   7.745   2.002  0.00  0.00     0.066 H 
ATOM     19  H2  <0> d          -2.442   6.516   3.287  0.00  0.00     0.066 H 
ATOM     20  H3  <0> d          -0.915   6.795   2.417  0.00  0.00     0.066 H 
ENDBRANCH  16  17
ENDBRANCH  13  16
ENDBRANCH  12  13
ENDBRANCH   1  12
TORSDOF 4
