REMARK  4 active torsions:
REMARK  status: ('A' for Active; 'I' for Inactive)
REMARK    1  A    between atoms: C1_1  and  C2_2 
REMARK    2  A    between atoms: C4_6  and  C8_12 
REMARK    3  A    between atoms: C5_9  and  C6_10 
REMARK    4  A    between atoms: C5_9  and  C7_11 
ROOT
ATOM      1  C2  <0> d          -0.734   1.582   1.266  0.00  0.00    -0.007 C 
ATOM      2  H1  <0> d          -0.670   2.669   1.318  0.00  0.00     0.047 H 
ATOM      3  C3  <0> d          -0.013   1.086   0.008  0.00  0.00     0.028 C 
ATOM      4  O1  <0> d          -0.709   1.562  -1.148  0.00  0.00    -0.361 OA
ATOM      5  C4  <0> d          -2.078   1.155  -1.204  0.00  0.00     0.128 C 
ATOM      6  H2  <0> d          -2.133   0.067  -1.240  0.00  0.00     0.128 H 
ATOM      7  O2  <0> d          -2.764   1.629  -0.043  0.00  0.00    -0.351 OA
ATOM      8  C5  <0> d          -2.207   1.158   1.188  0.00  0.00     0.062 C 
ATOM      9  H6  <0> d           0.002  -0.004   0.002  0.00  0.00     0.075 H 
ATOM     10  H7  <0> d           1.009   1.465   0.000  0.00  0.00     0.075 H 
ENDROOT
BRANCH   8  11
ATOM     11  C6  <0> d          -2.977   1.764   2.364  0.00  0.00    -0.048 C 
ATOM     12  H8  <0> d          -4.024   1.468   2.303  0.00  0.00     0.031 H 
ATOM     13  H9  <0> d          -2.552   1.403   3.301  0.00  0.00     0.031 H 
ATOM     14  H10 <0> d          -2.903   2.850   2.325  0.00  0.00     0.031 H 
ENDBRANCH   8  11
BRANCH   8  15
ATOM     15  C7  <0> d          -2.306  -0.368   1.244  0.00  0.00    -0.048 C 
ATOM     16  H11 <0> d          -1.754  -0.799   0.408  0.00  0.00     0.031 H 
ATOM     17  H12 <0> d          -1.881  -0.726   2.182  0.00  0.00     0.031 H 
ATOM     18  H13 <0> d          -3.352  -0.667   1.181  0.00  0.00     0.031 H 
ENDBRANCH   8  15
BRANCH   1  19
ATOM     19  C1  <0> d          -0.084   0.967   2.506  0.00  0.00    -0.068 C 
ATOM     20  H3  <0> d           0.965   1.261   2.551  0.00  0.00     0.028 H 
ATOM     21  H4  <0> d          -0.599   1.321   3.400  0.00  0.00     0.028 H 
ATOM     22  H5  <0> d          -0.155  -0.119   2.453  0.00  0.00     0.028 H 
ENDBRANCH   1  19
BRANCH   5  23
ATOM     23  C8  <0> d          -2.733   1.740  -2.457  0.00  0.00    -0.031 C 
ATOM     24  H14 <0> d          -2.210   1.379  -3.343  0.00  0.00     0.034 H 
ATOM     25  H15 <0> d          -3.777   1.430  -2.500  0.00  0.00     0.034 H 
ATOM     26  H16 <0> d          -2.678   2.828  -2.422  0.00  0.00     0.034 H 
ENDBRANCH   5  23
TORSDOF 4
