REMARK  0 active torsions:
REMARK  status: ('A' for Active; 'I' for Inactive)
ROOT
ATOM      1  C1  <0> d          -0.017   1.385   0.010  0.00  0.00    -0.082 A 
ATOM      2  C2  <0> d           1.165   2.103   0.002  0.00  0.00    -0.082 A 
ATOM      3  C3  <0> d           2.389   1.445  -0.013  0.00  0.00    -0.075 A 
ATOM      4  C4  <0> d           2.400   0.082  -0.021  0.00  0.00    -0.040 A 
ATOM      5  C5  <0> d           1.207  -0.643  -0.013  0.00  0.00    -0.040 A 
ATOM      6  C6  <0> d           0.002  -0.004   0.002  0.00  0.00    -0.075 A 
ATOM      7  C7  <0> d           1.412  -2.148  -0.024  0.00  0.00     0.004 C 
ATOM      8  C8  <0> d           2.332  -2.424   1.173  0.00  0.00    -0.094 C 
ATOM      9  C9  <0> d           3.471  -1.732   1.166  0.00  0.00    -0.094 C 
ATOM     10  C10 <0> d           3.640  -0.795  -0.038  0.00  0.00     0.004 C 
ATOM     11  C11 <0> d           3.447  -1.717  -1.250  0.00  0.00    -0.094 C 
ATOM     12  C12 <0> d           2.308  -2.409  -1.243  0.00  0.00    -0.094 C 
ATOM     13  H1  <0> d          -0.961   1.909   0.026  0.00  0.00     0.083 H 
ATOM     14  H2  <0> d           1.137   3.182   0.008  0.00  0.00     0.083 H 
ATOM     15  H3  <0> d           3.314   2.003  -0.019  0.00  0.00     0.084 H 
ATOM     16  H4  <0> d          -0.919  -0.567   0.008  0.00  0.00     0.084 H 
ATOM     17  H5  <0> d           0.485  -2.722  -0.024  0.00  0.00     0.059 H 
ATOM     18  H6  <0> d           2.076  -3.120   1.958  0.00  0.00     0.077 H 
ATOM     19  H7  <0> d           4.214  -1.823   1.945  0.00  0.00     0.077 H 
ATOM     20  H8  <0> d           4.577  -0.238  -0.038  0.00  0.00     0.059 H 
ATOM     21  H9  <0> d           4.175  -1.798  -2.043  0.00  0.00     0.077 H 
ATOM     22  H10 <0> d           2.038  -3.097  -2.030  0.00  0.00     0.077 H 
ENDROOT
TORSDOF 0
