REMARK  1 active torsions:
REMARK  status: ('A' for Active; 'I' for Inactive)
REMARK    1  A    between atoms: C3_4  and  C5_8 
ROOT
ATOM      1  C1  <0> d          -0.017   1.412   0.010  0.00  0.00    -0.000 A 
ATOM      2  C2  <0> d           1.168   2.083   0.002  0.00  0.00     0.010 A 
ATOM      3  N1  <0> d           2.318   1.409  -0.013  0.00  0.00    -0.237 NA
ATOM      4  C3  <0> d           2.346   0.099  -0.020  0.00  0.00     0.208 A 
ATOM      5  N2  <0> d           1.197  -0.633  -0.013  0.00  0.00    -0.302 N 
ATOM      6  C4  <0> d           0.002  -0.004   0.002  0.00  0.00     0.248 A 
ATOM      7  O1  <0> d          -1.037  -0.641   0.009  0.00  0.00    -0.268 OA
ATOM      8  H1  <0> d          -0.954   1.950   0.026  0.00  0.00     0.094 H 
ATOM      9  H2  <0> d           1.176   3.163   0.007  0.00  0.00     0.115 H 
ATOM     10  H3  <0> d           1.237  -1.602  -0.018  0.00  0.00     0.171 HD
ENDROOT
BRANCH   4  11
ATOM     11  C5  <0> d           3.655  -0.601  -0.037  0.00  0.00     0.247 C 
ATOM     12  O2  <0> d           4.693   0.044  -0.043  0.00  0.00    -0.642 OA
ATOM     13  O3  <0> d           3.695  -1.822  -0.043  0.00  0.00    -0.642 OA
ENDBRANCH   4  11
TORSDOF 1
