REMARK  2 active torsions:
REMARK  status: ('A' for Active; 'I' for Inactive)
REMARK    1  A    between atoms: C1_1  and  O1_2 
REMARK    2  A    between atoms: O1_2  and  C2_3 
ROOT
ATOM      1  C2  <0> d           1.155   3.527   0.010  0.00  0.00     0.108 A 
ATOM      2  C3  <0> d           1.181   2.144   0.002  0.00  0.00    -0.028 A 
ATOM      3  C4  <0> d          -0.017   1.428   0.010  0.00  0.00     0.047 A 
ATOM      4  C5  <0> d          -1.235   2.112   0.019  0.00  0.00    -0.060 A 
ATOM      5  C6  <0> d          -1.251   3.491   0.033  0.00  0.00    -0.041 A 
ATOM      6  C7  <0> d          -0.061   4.201   0.025  0.00  0.00     0.149 A 
ATOM      7  F1  <0> d          -0.084   5.552   0.033  0.00  0.00    -0.203 F 
ATOM      8  C8  <0> d           0.002  -0.004   0.002  0.00  0.00     0.099 C 
ATOM      9  N1  <0> d           0.018  -1.140  -0.004  0.00  0.00    -0.191 NA
ATOM     10  H4  <0> d           2.125   1.621  -0.010  0.00  0.00     0.090 H 
ATOM     11  H5  <0> d          -2.164   1.561   0.020  0.00  0.00     0.086 H 
ATOM     12  H6  <0> d          -2.193   4.019   0.045  0.00  0.00     0.088 H 
ENDROOT
BRANCH   1  13
ATOM     13  O1  <0> d           2.320   4.229   0.003  0.00  0.00    -0.353 OA
BRANCH  13  14
ATOM     14  C1  <0> d           3.533   3.473  -0.012  0.00  0.00     0.011 C 
ATOM     15  H1  <0> d           3.577   2.840   0.874  0.00  0.00     0.066 H 
ATOM     16  H2  <0> d           3.561   2.849  -0.906  0.00  0.00     0.066 H 
ATOM     17  H3  <0> d           4.385   4.153  -0.016  0.00  0.00     0.066 H 
ENDBRANCH  13  14
ENDBRANCH   1  13
TORSDOF 2
