REMARK  2 active torsions:
REMARK  status: ('A' for Active; 'I' for Inactive)
REMARK    1  A    between atoms: C1_1  and  C2_2 
REMARK    2  A    between atoms: C5_9  and  C6_10 
ROOT
ATOM      1  C2  <0> d          -0.017   1.394   0.010  0.00  0.00    -0.022 A 
ATOM      2  C3  <0> d           0.002  -0.004   0.002  0.00  0.00     0.015 A 
ATOM      3  N1  <0> d           1.154  -0.644  -0.012  0.00  0.00    -0.206 NA
ATOM      4  C4  <0> d           2.309   0.026  -0.020  0.00  0.00     0.346 A 
ATOM      5  O1  <0> d           3.361  -0.590  -0.034  0.00  0.00    -0.245 OA
ATOM      6  N2  <0> d           2.328   1.372  -0.013  0.00  0.00    -0.311 N 
ATOM      7  H1  <0> d           3.288   1.909  -0.019  0.00  0.00     0.170 HD
ATOM      8  C5  <0> d           1.163   2.071   0.002  0.00  0.00     0.017 A 
ATOM      9  H5  <0> d          -0.925  -0.558   0.007  0.00  0.00     0.115 H 
ENDROOT
BRANCH   1  10
ATOM     10  C1  <0> d          -1.326   2.140   0.020  0.00  0.00    -0.048 C 
ATOM     11  H2  <0> d          -2.158   1.421   0.025  0.00  0.00     0.033 H 
ATOM     12  H3  <0> d          -1.394   2.773  -0.877  0.00  0.00     0.033 H 
ATOM     13  H4  <0> d          -1.381   2.771   0.919  0.00  0.00     0.033 H 
ENDBRANCH   1  10
BRANCH   8  14
ATOM     14  C6  <0> d           1.177   3.578   0.009  0.00  0.00    -0.037 C 
ATOM     15  H6  <0> d           2.218   3.935   0.002  0.00  0.00     0.035 H 
ATOM     16  H7  <0> d           0.670   3.945   0.914  0.00  0.00     0.035 H 
ATOM     17  H8  <0> d           0.654   3.954  -0.882  0.00  0.00     0.035 H 
ENDBRANCH   8  14
TORSDOF 2
