REMARK  3 active torsions:
REMARK  status: ('A' for Active; 'I' for Inactive)
REMARK    1  A    between atoms: C3_3  and  N1_10 
REMARK    2  A    between atoms: C4_4  and  C7_8 
REMARK    3  A    between atoms: C7_8  and  O1_9 
ROOT
ATOM      1  C1  <0> d          -1.218   1.751   0.017  0.00  0.00    -0.060 A 
ATOM      2  C2  <0> d          -0.013   1.076   0.008  0.00  0.00    -0.056 A 
ATOM      3  C3  <0> d           1.180   1.787   0.000  0.00  0.00     0.034 A 
ATOM      4  C4  <0> d           1.158   3.176   0.008  0.00  0.00    -0.007 A 
ATOM      5  C5  <0> d          -0.050   3.846   0.022  0.00  0.00    -0.052 A 
ATOM      6  C6  <0> d          -1.237   3.134   0.030  0.00  0.00     0.034 A 
ATOM      7 Cl1  <0> d          -2.753   3.979   0.048  0.00  0.00    -0.084 Cl
ATOM      8  H1  <0> d          -2.146   1.198   0.019  0.00  0.00     0.086 H 
ATOM      9  H2  <0> d           0.002  -0.004   0.002  0.00  0.00     0.087 H 
ATOM     10  H3  <0> d          -0.068   4.926   0.028  0.00  0.00     0.087 H 
ENDROOT
BRANCH   4  11
ATOM     11  C7  <0> d           2.450   3.951  -0.000  0.00  0.00     0.043 C 
ATOM     12  H4  <0> d           3.034   3.693   0.883  0.00  0.00     0.081 H 
ATOM     13  H5  <0> d           3.018   3.702  -0.896  0.00  0.00     0.081 H 
BRANCH  11  14
ATOM     14  O1  <0> d           2.165   5.352   0.009  0.00  0.00    -0.396 OA
ATOM     15  H6  <0> d           2.952   5.913   0.005  0.00  0.00     0.209 HD
ENDBRANCH  11  14
ENDBRANCH   4  11
BRANCH   3  16
ATOM     16  N1  <0> d           2.401   1.107  -0.015  0.00  0.00    -0.399 N 
ATOM     17  H7  <0> d           2.416   0.137  -0.020  0.00  0.00     0.156 HD
ATOM     18  H8  <0> d           3.233   1.605  -0.020  0.00  0.00     0.156 HD
ENDBRANCH   3  16
TORSDOF 3
