REMARK  2 active torsions:
REMARK  status: ('A' for Active; 'I' for Inactive)
REMARK    1  A    between atoms: C2_2  and  N1_3 
REMARK    2  A    between atoms: C6_7  and  C7_8 
ROOT
ATOM      1  N1  <0> d          -0.736   3.160   0.025  0.00  0.00    -0.328 N 
ATOM      2  C3  <0> d          -1.119   1.858   0.017  0.00  0.00    -0.015 A 
ATOM      3  C4  <0> d          -0.013   1.076   0.008  0.00  0.00    -0.065 A 
ATOM      4  C5  <0> d           1.107   1.913   0.002  0.00  0.00    -0.049 A 
ATOM      5  C6  <0> d           0.642   3.213   0.012  0.00  0.00     0.115 A 
ATOM      6  H4  <0> d          -2.139   1.503   0.019  0.00  0.00     0.112 H 
ATOM      7  H5  <0> d           0.002  -0.004   0.002  0.00  0.00     0.085 H 
ATOM      8  H6  <0> d           2.141   1.602  -0.009  0.00  0.00     0.087 H 
ENDROOT
BRANCH   1   9
ATOM      9  C2  <0> d          -1.593   4.260   0.038  0.00  0.00    -0.024 C 
ATOM     10  C1  <0> d          -2.899   4.079   0.049  0.00  0.00    -0.106 C 
ATOM     11  H1  <0> d          -3.305   3.078   0.048  0.00  0.00     0.068 H 
ATOM     12  H2  <0> d          -3.563   4.931   0.060  0.00  0.00     0.068 H 
ATOM     13  H3  <0> d          -1.187   5.261   0.040  0.00  0.00     0.110 H 
ENDBRANCH   1   9
BRANCH   5  14
ATOM     14  C7  <0> d           1.462   4.426   0.011  0.00  0.00     0.227 C 
ATOM     15  O1  <0> d           2.675   4.340  -0.000  0.00  0.00    -0.643 OA
ATOM     16  O2  <0> d           0.872   5.639   0.023  0.00  0.00    -0.643 OA
ENDBRANCH   5  14
TORSDOF 2
