REMARK  0 active torsions:
REMARK  status: ('A' for Active; 'I' for Inactive)
ROOT
ATOM      1  C1  <0> d          -0.700   3.814   0.028  0.00  0.00     0.066 A 
ATOM      2  N1  <0> d          -1.132   2.534   0.021  0.00  0.00    -0.339 N 
ATOM      3  H1  <0> d          -2.084   2.229   0.021  0.00  0.00     0.167 HD
ATOM      4  C2  <0> d          -0.021   1.732   0.012  0.00  0.00     0.145 A 
ATOM      5  C3  <0> d           1.050   2.551   0.006  0.00  0.00     0.165 A 
ATOM      6  N2  <0> d           0.605   3.817   0.016  0.00  0.00    -0.229 NA
ATOM      7 Cl1  <0> d           2.714   2.054  -0.013  0.00  0.00    -0.059 Cl
ATOM      8 Cl2  <0> d           0.002  -0.004   0.002  0.00  0.00    -0.061 Cl
ATOM      9  H2  <0> d          -1.331   4.691   0.038  0.00  0.00     0.143 H 
ENDROOT
TORSDOF 0
