REMARK  6 active torsions:
REMARK  status: ('A' for Active; 'I' for Inactive)
REMARK    1  A    between atoms: C1_1  and  C2_2 
REMARK    2  A    between atoms: C2_2  and  C3_3 
REMARK    3  A    between atoms: C3_3  and  C4_5 
REMARK    4  A    between atoms: C3_3  and  O2_9 
REMARK    5  A    between atoms: C4_5  and  C5_7 
REMARK    6  A    between atoms: C5_7  and  C6_8 
ROOT
ATOM      1  C3  <0> d           0.011   1.072   2.506  0.00  0.00     0.092 C 
ATOM      2  H1  <0> d           0.971   1.350   2.459  0.00  0.00     0.095 H 
ENDROOT
BRANCH   1   3
ATOM      3  C2  <0> d          -0.729   1.579   1.267  0.00  0.00    -0.038 C 
ATOM      4  H5  <0> d          -0.744   2.669   1.273  0.00  0.00     0.036 H 
ATOM      5  H6  <0> d          -1.751   1.202   1.275  0.00  0.00     0.036 H 
BRANCH   3   6
ATOM      6  C1  <0> d          -0.013   1.086   0.008  0.00  0.00    -0.074 C 
ATOM      7  H2  <0> d           0.002  -0.004   0.002  0.00  0.00     0.027 H 
ATOM      8  H3  <0> d           1.010   1.463   0.000  0.00  0.00     0.027 H 
ATOM      9  H4  <0> d          -0.540   1.447  -0.875  0.00  0.00     0.027 H 
ENDBRANCH   3   6
ENDBRANCH   1   3
BRANCH   1  10
ATOM     10  C4  <0> d          -0.621   1.658   3.743  0.00  0.00     0.154 C 
ATOM     11  O1  <0> d          -1.323   0.971   4.445  0.00  0.00    -0.295 OA
BRANCH  10  12
ATOM     12  C5  <0> d          -0.375   3.101   4.103  0.00  0.00    -0.010 C 
ATOM     13  H7  <0> d           0.604   3.248   4.239  0.00  0.00     0.043 H 
ATOM     14  H8  <0> d          -0.731   3.742   3.297  0.00  0.00     0.043 H 
BRANCH  12  15
ATOM     15  C6  <0> d          -1.126   3.439   5.393  0.00  0.00    -0.070 C 
ATOM     16  H9  <0> d          -2.194   3.278   5.245  0.00  0.00     0.028 H 
ATOM     17  H10 <0> d          -0.770   2.797   6.199  0.00  0.00     0.028 H 
ATOM     18  H11 <0> d          -0.949   4.482   5.654  0.00  0.00     0.028 H 
ENDBRANCH  12  15
ENDBRANCH  10  12
ENDBRANCH   1  10
BRANCH   1  19
ATOM     19  O2  <0> d          -0.070  -0.353   2.560  0.00  0.00    -0.388 OA
ATOM     20  H12 <0> d          -0.973  -0.695   2.607  0.00  0.00     0.210 HD
ENDBRANCH   1  19
TORSDOF 6
