REMARK  2 active torsions:
REMARK  status: ('A' for Active; 'I' for Inactive)
REMARK    1  A    between atoms: C1_1  and  C2_2 
REMARK    2  A    between atoms: C7_7  and  N2_12 
ROOT
ATOM      1  C2  <0> d           0.002  -0.004   0.002  0.00  0.00     0.031 A 
ATOM      2  C3  <0> d           0.005  -0.675  -1.219  0.00  0.00    -0.059 A 
ATOM      3  C4  <0> d           0.024  -2.041  -1.245  0.00  0.00    -0.069 A 
ATOM      4  C5  <0> d           0.039  -2.729  -0.017  0.00  0.00    -0.005 A 
ATOM      5  C6  <0> d           0.059  -4.131   0.032  0.00  0.00    -0.046 A 
ATOM      6  C7  <0> d           0.074  -4.766   1.255  0.00  0.00     0.026 A 
ATOM      7  C8  <0> d           0.069  -4.024   2.442  0.00  0.00    -0.056 A 
ATOM      8  C9  <0> d           0.049  -2.666   2.419  0.00  0.00    -0.052 A 
ATOM      9  C10 <0> d           0.035  -1.984   1.188  0.00  0.00     0.067 A 
ATOM     10  N1  <0> d           0.022  -0.648   1.143  0.00  0.00    -0.253 NA
ATOM     11  H4  <0> d          -0.007  -0.117  -2.143  0.00  0.00     0.086 H 
ATOM     12  H5  <0> d           0.026  -2.578  -2.183  0.00  0.00     0.085 H 
ATOM     13  H6  <0> d           0.062  -4.708  -0.881  0.00  0.00     0.088 H 
ATOM     14  H7  <0> d           0.080  -4.540   3.391  0.00  0.00     0.087 H 
ATOM     15  H8  <0> d           0.045  -2.110   3.344  0.00  0.00     0.087 H 
ENDROOT
BRANCH   1  16
ATOM     16  C1  <0> d          -0.018   1.503   0.010  0.00  0.00    -0.035 C 
ATOM     17  H1  <0> d           1.004   1.880   0.003  0.00  0.00     0.035 H 
ATOM     18  H2  <0> d          -0.545   1.864  -0.873  0.00  0.00     0.035 H 
ATOM     19  H3  <0> d          -0.529   1.854   0.907  0.00  0.00     0.035 H 
ENDBRANCH   1  16
BRANCH   6  20
ATOM     20  N2  <0> d           0.094  -6.162   1.310  0.00  0.00    -0.399 N 
ATOM     21  H9  <0> d           0.097  -6.679   0.490  0.00  0.00     0.156 HD
ATOM     22  H10 <0> d           0.104  -6.613   2.169  0.00  0.00     0.156 HD
ENDBRANCH   6  20
TORSDOF 2
