REMARK  1 active torsions:
REMARK  status: ('A' for Active; 'I' for Inactive)
REMARK    1  A    between atoms: C6_7  and  O2_12 
ROOT
ATOM      1  C1  <0> d          -0.013   1.076   0.008  0.00  0.00    -0.063 A 
ATOM      2  C2  <0> d          -1.215   1.762   0.017  0.00  0.00    -0.047 A 
ATOM      3  C3  <0> d          -1.188   3.155   0.031  0.00  0.00     0.096 A 
ATOM      4  C4  <0> d           0.034   3.805   0.020  0.00  0.00     0.096 A 
ATOM      5  N1  <0> d           1.159   3.110   0.006  0.00  0.00    -0.260 NA
ATOM      6  C5  <0> d           1.169   1.793   0.001  0.00  0.00     0.003 A 
ATOM      7  C6  <0> d           0.116   5.312   0.020  0.00  0.00     0.082 C 
ATOM      8  H1  <0> d           0.400   5.680  -0.978  0.00  0.00     0.093 H 
ATOM      9  C7  <0> d          -1.220   5.901   0.477  0.00  0.00    -0.015 C 
ATOM     10  C8  <0> d          -2.345   5.214  -0.307  0.00  0.00     0.029 C 
ATOM     11  O1  <0> d          -2.364   3.831   0.052  0.00  0.00    -0.349 OA
ATOM     12  H2  <0> d           0.002  -0.004   0.002  0.00  0.00     0.085 H 
ATOM     13  H3  <0> d          -2.155   1.229   0.018  0.00  0.00     0.087 H 
ATOM     14  H4  <0> d           2.112   1.267  -0.010  0.00  0.00     0.114 H 
ATOM     15  H5  <0> d          -1.350   5.723   1.555  0.00  0.00     0.040 H 
ATOM     16  H6  <0> d          -1.230   6.983   0.281  0.00  0.00     0.040 H 
ATOM     17  H7  <0> d          -3.308   5.682  -0.054  0.00  0.00     0.075 H 
ATOM     18  H8  <0> d          -2.158   5.321  -1.386  0.00  0.00     0.075 H 
ENDROOT
BRANCH   7  19
ATOM     19  O2  <0> d           1.151   5.732   0.911  0.00  0.00    -0.389 OA
ATOM     20  H9  <0> d           1.361   6.803   1.044  0.00  0.00     0.210 HD
ENDBRANCH   7  19
TORSDOF 1
