REMARK  1 active torsions:
REMARK  status: ('A' for Active; 'I' for Inactive)
REMARK    1  A    between atoms: C1_1  and  N1_2 
ROOT
ATOM      1  N1  <0> d           0.698   3.110   0.259  0.00  0.00    -0.313 N 
ATOM      2  C2  <0> d          -0.613   3.012   0.893  0.00  0.00     0.121 C 
ATOM      3  H1  <0> d          -0.550   2.812   1.963  0.00  0.00     0.113 H 
ATOM      4  C3  <0> d          -1.134   1.804   0.016  0.00  0.00     0.120 C 
ATOM      5  H2  <0> d          -1.087   2.222  -0.989  0.00  0.00     0.113 H 
ATOM      6  N2  <0> d          -2.512   1.845   0.262  0.00  0.00    -0.318 N 
ATOM      7  C4  <0> d          -2.807   3.177   0.404  0.00  0.00     0.319 C 
ATOM      8  O1  <0> d          -3.937   3.627   0.395  0.00  0.00    -0.247 OA
ATOM      9  N3  <0> d          -1.684   3.940   0.556  0.00  0.00    -0.318 N 
ATOM     10  N4  <0> d          -0.011   0.966   0.007  0.00  0.00    -0.318 N 
ATOM     11  C5  <0> d           1.066   1.816   0.002  0.00  0.00     0.321 C 
ATOM     12  O2  <0> d           2.211   1.463  -0.206  0.00  0.00    -0.247 OA
ATOM     13  H6  <0> d          -3.125   1.095   0.315  0.00  0.00     0.166 HD
ATOM     14  H7  <0> d          -1.614   4.903   0.460  0.00  0.00     0.166 HD
ATOM     15  H8  <0> d           0.002  -0.004   0.002  0.00  0.00     0.166 HD
ENDROOT
BRANCH   1  16
ATOM     16  C1  <0> d           1.454   4.329  -0.039  0.00  0.00    -0.012 C 
ATOM     17  H3  <0> d           2.398   4.063  -0.516  0.00  0.00     0.056 H 
ATOM     18  H4  <0> d           0.874   4.963  -0.709  0.00  0.00     0.056 H 
ATOM     19  H5  <0> d           1.655   4.867   0.887  0.00  0.00     0.056 H 
ENDBRANCH   1  16
TORSDOF 1
