REMARK  3 active torsions:
REMARK  status: ('A' for Active; 'I' for Inactive)
REMARK    1  A    between atoms: C1_1  and  C2_2 
REMARK    2  A    between atoms: C4_4  and  C8_9 
REMARK    3  A    between atoms: C6_6  and  N1_8 
ROOT
ATOM      1  C2  <0> d           2.406   0.020  -0.020  0.00  0.00    -0.059 A 
ATOM      2  C3  <0> d           2.398   1.400  -0.013  0.00  0.00    -0.061 A 
ATOM      3  C4  <0> d           1.185   2.091   0.002  0.00  0.00     0.043 A 
ATOM      4  C5  <0> d          -0.017   1.382   0.010  0.00  0.00    -0.041 A 
ATOM      5  C6  <0> d           0.002  -0.004   0.002  0.00  0.00     0.027 A 
ATOM      6  C7  <0> d           1.215  -0.683  -0.013  0.00  0.00    -0.052 A 
ATOM      7  H4  <0> d           3.330   1.945  -0.019  0.00  0.00     0.086 H 
ATOM      8  H5  <0> d          -0.958   1.911   0.017  0.00  0.00     0.088 H 
ATOM      9  H6  <0> d           1.228  -1.763  -0.019  0.00  0.00     0.087 H 
ENDROOT
BRANCH   1  10
ATOM     10  C1  <0> d           3.716  -0.724  -0.036  0.00  0.00    -0.051 C 
ATOM     11  H1  <0> d           4.023  -0.898  -1.067  0.00  0.00     0.033 H 
ATOM     12  H2  <0> d           4.476  -0.131   0.474  0.00  0.00     0.033 H 
ATOM     13  H3  <0> d           3.598  -1.680   0.474  0.00  0.00     0.033 H 
ENDBRANCH   1  10
BRANCH   5  14
ATOM     14  N1  <0> d          -1.198  -0.719   0.009  0.00  0.00    -0.399 N 
ATOM     15  H7  <0> d          -2.045  -0.246   0.019  0.00  0.00     0.156 HD
ATOM     16  H8  <0> d          -1.185  -1.689   0.004  0.00  0.00     0.156 HD
ENDBRANCH   5  14
BRANCH   3  17
ATOM     17  C8  <0> d           1.174   3.569   0.009  0.00  0.00     0.209 C 
ATOM     18  O1  <0> d           2.221   4.184   0.003  0.00  0.00    -0.644 OA
ATOM     19  O2  <0> d           0.002   4.233   0.024  0.00  0.00    -0.644 OA
ENDBRANCH   3  17
TORSDOF 3
