REMARK  8 active torsions:
REMARK  status: ('A' for Active; 'I' for Inactive)
REMARK    1  A    between atoms: C1_1  and  C2_2 
REMARK    2  A    between atoms: C2_2  and  C3_3 
REMARK    3  A    between atoms: C3_3  and  C4_4 
REMARK    4  A    between atoms: C3_3  and  C6_6 
REMARK    5  A    between atoms: C3_3  and  N1_8 
REMARK    6  A    between atoms: C4_4  and  C5_5 
REMARK    7  A    between atoms: C6_6  and  C7_7 
REMARK       I    between atoms: N1_8  and  C8_9 
REMARK    8  A    between atoms: C8_9  and  C9_11 
ROOT
ATOM      1  C3  <0> d          -1.290   1.681   0.017  0.00  0.00     0.032 C 
ENDROOT
BRANCH   1   2
ATOM      2  C2  <0> d          -2.439   0.671   0.017  0.00  0.00    -0.045 C 
ATOM      3  H4  <0> d          -2.377   0.050  -0.876  0.00  0.00     0.036 H 
ATOM      4  H5  <0> d          -2.369   0.040   0.903  0.00  0.00     0.036 H 
BRANCH   2   5
ATOM      5  C1  <0> d          -3.774   1.418   0.028  0.00  0.00    -0.074 C 
ATOM      6  H1  <0> d          -3.836   2.039   0.921  0.00  0.00     0.027 H 
ATOM      7  H2  <0> d          -3.845   2.049  -0.859  0.00  0.00     0.027 H 
ATOM      8  H3  <0> d          -4.593   0.699   0.028  0.00  0.00     0.027 H 
ENDBRANCH   2   5
ENDBRANCH   1   2
BRANCH   1   9
ATOM      9  C4  <0> d          -1.377   2.553   1.272  0.00  0.00    -0.045 C 
ATOM     10  H6  <0> d          -0.613   3.329   1.229  0.00  0.00     0.036 H 
ATOM     11  H7  <0> d          -2.362   3.016   1.325  0.00  0.00     0.036 H 
BRANCH   9  12
ATOM     12  C5  <0> d          -1.153   1.685   2.512  0.00  0.00    -0.074 C 
ATOM     13  H8  <0> d          -1.917   0.909   2.555  0.00  0.00     0.027 H 
ATOM     14  H9  <0> d          -0.168   1.222   2.459  0.00  0.00     0.027 H 
ATOM     15  H10 <0> d          -1.215   2.306   3.406  0.00  0.00     0.027 H 
ENDBRANCH   9  12
ENDBRANCH   1   9
BRANCH   1  16
ATOM     16  C6  <0> d          -1.389   2.566  -1.227  0.00  0.00    -0.045 C 
ATOM     17  H11 <0> d          -2.340   3.098  -1.219  0.00  0.00     0.036 H 
ATOM     18  H12 <0> d          -0.570   3.286  -1.227  0.00  0.00     0.036 H 
BRANCH  16  19
ATOM     19  C7  <0> d          -1.302   1.695  -2.481  0.00  0.00    -0.074 C 
ATOM     20  H13 <0> d          -0.350   1.163  -2.489  0.00  0.00     0.027 H 
ATOM     21  H14 <0> d          -2.120   0.975  -2.481  0.00  0.00     0.027 H 
ATOM     22  H15 <0> d          -1.372   2.325  -3.367  0.00  0.00     0.027 H 
ENDBRANCH  16  19
ENDBRANCH   1  16
BRANCH   1  23
ATOM     23  N1  <0> d          -0.011   0.966   0.007  0.00  0.00    -0.352 N 
ATOM     24  C8  <0> d           1.147   1.655  -0.000  0.00  0.00     0.214 C 
ATOM     25  O1  <0> d           1.130   2.868   0.007  0.00  0.00    -0.274 OA
ATOM     26  H16 <0> d           0.002  -0.004   0.002  0.00  0.00     0.163 HD
BRANCH  24  27
ATOM     27  C9  <0> d           2.462   0.920  -0.017  0.00  0.00    -0.003 C 
ATOM     28  H17 <0> d           2.520   0.299  -0.910  0.00  0.00     0.040 H 
ATOM     29  H18 <0> d           3.281   1.639  -0.021  0.00  0.00     0.040 H 
ATOM     30  H19 <0> d           2.537   0.289   0.869  0.00  0.00     0.040 H 
ENDBRANCH  24  27
ENDBRANCH   1  23
TORSDOF 8
