REMARK  3 active torsions:
REMARK  status: ('A' for Active; 'I' for Inactive)
REMARK    1  A    between atoms: C1_1  and  C2_2 
REMARK    2  A    between atoms: C3_3  and  N3_10 
REMARK    3  A    between atoms: C4_4  and  C5_8 
ROOT
ATOM      1  C2  <0> d          -1.427   3.036   0.031  0.00  0.00     0.079 A 
ATOM      2  C3  <0> d          -1.226   1.646   0.017  0.00  0.00     0.087 A 
ATOM      3  C4  <0> d          -2.506   1.093   0.020  0.00  0.00     0.155 A 
ATOM      4  N1  <0> d          -3.376   2.156   0.030  0.00  0.00    -0.269 N 
ATOM      5  H1  <0> d          -4.374   2.084   0.035  0.00  0.00     0.189 HD
ATOM      6  N2  <0> d          -2.715   3.257   0.032  0.00  0.00    -0.177 NA
ENDROOT
BRANCH   1   7
ATOM      7  C1  <0> d          -0.347   4.087   0.039  0.00  0.00    -0.032 C 
ATOM      8  H2  <0> d          -0.089   4.351  -0.986  0.00  0.00     0.035 H 
ATOM      9  H3  <0> d          -0.707   4.973   0.563  0.00  0.00     0.035 H 
ATOM     10  H4  <0> d           0.535   3.698   0.548  0.00  0.00     0.035 H 
ENDBRANCH   1   7
BRANCH   2  11
ATOM     11  N3  <0> d          -0.011   0.966   0.007  0.00  0.00    -0.395 N 
ATOM     12  H5  <0> d           0.002  -0.004   0.002  0.00  0.00     0.156 HD
ATOM     13  H6  <0> d           0.822   1.462   0.002  0.00  0.00     0.156 HD
ENDBRANCH   2  11
BRANCH   3  14
ATOM     14  C5  <0> d          -2.851  -0.328   0.015  0.00  0.00     0.230 C 
ATOM     15  O1  <0> d          -1.971  -1.167   0.006  0.00  0.00    -0.643 OA
ATOM     16  O2  <0> d          -4.146  -0.707   0.019  0.00  0.00    -0.643 OA
ENDBRANCH   3  14
TORSDOF 3
