REMARK  3 active torsions:
REMARK  status: ('A' for Active; 'I' for Inactive)
REMARK    1  A    between atoms: C1_1  and  N1_2 
REMARK    2  A    between atoms: C6_8  and  O2_9 
REMARK    3  A    between atoms: O2_9  and  C7_10 
ROOT
ATOM      1  N1  <0> d           2.358   1.414  -0.008  0.00  0.00    -0.299 N 
ATOM      2  C2  <0> d           1.184   2.073   0.006  0.00  0.00     0.249 A 
ATOM      3  O1  <0> d           1.171   3.294   0.019  0.00  0.00    -0.268 OA
ATOM      4  C3  <0> d          -0.022   1.361   0.006  0.00  0.00    -0.017 A 
ATOM      5  C4  <0> d           0.004  -0.007  -0.009  0.00  0.00    -0.074 A 
ATOM      6  C5  <0> d           1.233  -0.668  -0.024  0.00  0.00    -0.033 A 
ATOM      7  C6  <0> d           2.392   0.054  -0.023  0.00  0.00     0.146 A 
ATOM      8  H4  <0> d          -0.965   1.887   0.013  0.00  0.00     0.092 H 
ATOM      9  H5  <0> d          -0.918  -0.570  -0.009  0.00  0.00     0.083 H 
ATOM     10  H6  <0> d           1.267  -1.747  -0.036  0.00  0.00     0.090 H 
ENDROOT
BRANCH   7  11
ATOM     11  O2  <0> d           3.581  -0.588  -0.037  0.00  0.00    -0.341 OA
BRANCH  11  12
ATOM     12  C7  <0> d           3.551  -2.013   0.067  0.00  0.00     0.012 C 
ATOM     13  H7  <0> d           2.997  -2.300   0.961  0.00  0.00     0.067 H 
ATOM     14  H8  <0> d           3.062  -2.431  -0.813  0.00  0.00     0.067 H 
ATOM     15  H9  <0> d           4.570  -2.394   0.132  0.00  0.00     0.067 H 
ENDBRANCH  11  12
ENDBRANCH   7  11
BRANCH   1  16
ATOM     16  C1  <0> d           3.614   2.170  -0.008  0.00  0.00    -0.009 C 
ATOM     17  H1  <0> d           3.873   2.445  -1.030  0.00  0.00     0.057 H 
ATOM     18  H2  <0> d           3.494   3.072   0.592  0.00  0.00     0.057 H 
ATOM     19  H3  <0> d           4.408   1.555   0.416  0.00  0.00     0.057 H 
ENDBRANCH   1  16
TORSDOF 3
