REMARK  0 active torsions:
REMARK  status: ('A' for Active; 'I' for Inactive)
ROOT
ATOM      1  C1  <0> d           2.370   1.352  -0.013  0.00  0.00    -0.040 A 
ATOM      2  C2  <0> d           2.308  -0.026  -0.020  0.00  0.00     0.004 A 
ATOM      3  N1  <0> d           1.151  -0.659  -0.013  0.00  0.00    -0.272 NA
ATOM      4  C3  <0> d           0.002  -0.004   0.002  0.00  0.00     0.011 A 
ATOM      5  C4  <0> d          -0.017   1.369   0.010  0.00  0.00    -0.005 A 
ATOM      6  C5  <0> d           1.180   2.082   0.002  0.00  0.00     0.044 A 
ATOM      7  N2  <0> d           0.929   3.447   0.012  0.00  0.00    -0.326 N 
ATOM      8  C6  <0> d          -0.387   3.724   0.026  0.00  0.00     0.226 A 
ATOM      9  O1  <0> d          -0.891   4.826   0.036  0.00  0.00    -0.273 OA
ATOM     10  C7  <0> d          -1.121   2.399   0.020  0.00  0.00     0.037 A 
ATOM     11  H1  <0> d           3.324   1.858  -0.019  0.00  0.00     0.089 H 
ATOM     12  H2  <0> d           3.225  -0.598  -0.032  0.00  0.00     0.114 H 
ATOM     13  H3  <0> d          -0.928  -0.553   0.008  0.00  0.00     0.115 H 
ATOM     14  H4  <0> d           1.767   4.161   0.007  0.00  0.00     0.169 HD
ATOM     15  H5  <0> d          -1.745   2.275  -0.877  0.00  0.00     0.054 H 
ATOM     16  H6  <0> d          -1.740   2.264   0.919  0.00  0.00     0.054 H 
ENDROOT
TORSDOF 0
