REMARK  3 active torsions:
REMARK  status: ('A' for Active; 'I' for Inactive)
REMARK    1  A    between atoms: C1_1  and  C2_2 
REMARK    2  A    between atoms: C6_6  and  C8_9 
REMARK    3  A    between atoms: C8_9  and  O1_10 
ROOT
ATOM      1  C2  <0> d           2.147   5.241   0.009  0.00  0.00    -0.023 A 
ATOM      2  C3  <0> d           0.891   5.817   0.024  0.00  0.00    -0.074 A 
ATOM      3  C4  <0> d          -0.236   5.016   0.031  0.00  0.00    -0.082 A 
ATOM      4  C5  <0> d          -0.108   3.640   0.023  0.00  0.00    -0.072 A 
ATOM      5  C6  <0> d           1.147   3.062   0.008  0.00  0.00     0.004 A 
ATOM      6  C7  <0> d           2.277   3.863   0.007  0.00  0.00     0.130 A 
ATOM      7  F1  <0> d           3.505   3.299  -0.002  0.00  0.00    -0.205 F 
ATOM      8  H4  <0> d           0.789   6.892   0.030  0.00  0.00     0.084 H 
ATOM      9  H5  <0> d          -1.218   5.467   0.042  0.00  0.00     0.083 H 
ATOM     10  H6  <0> d          -0.990   3.015   0.028  0.00  0.00     0.084 H 
ENDROOT
BRANCH   5  11
ATOM     11  C8  <0> d           1.286   1.562  -0.002  0.00  0.00     0.043 C 
ATOM     12  H7  <0> d           1.840   1.243   0.881  0.00  0.00     0.081 H 
ATOM     13  H8  <0> d           1.823   1.252  -0.899  0.00  0.00     0.081 H 
BRANCH  11  14
ATOM     14  O1  <0> d          -0.011   0.963   0.007  0.00  0.00    -0.396 OA
ATOM     15  H9  <0> d           0.002  -0.004   0.002  0.00  0.00     0.209 HD
ENDBRANCH  11  14
ENDBRANCH   5  11
BRANCH   1  16
ATOM     16  C1  <0> d           3.376   6.114   0.001  0.00  0.00    -0.048 C 
ATOM     17  H1  <0> d           3.682   6.320   1.027  0.00  0.00     0.033 H 
ATOM     18  H2  <0> d           4.183   5.601  -0.523  0.00  0.00     0.033 H 
ATOM     19  H3  <0> d           3.152   7.052  -0.507  0.00  0.00     0.033 H 
ENDBRANCH   1  16
TORSDOF 3
