REMARK  2 active torsions:
REMARK  status: ('A' for Active; 'I' for Inactive)
REMARK    1  A    between atoms: C1_1  and  C2_2 
REMARK    2  A    between atoms: C4_5  and  C5_7 
ROOT
ATOM      1  C2  <0> d           1.887   4.279  -1.168  0.00  0.00    -0.050 A 
ATOM      2  H1  <0> d           2.318   3.651  -1.948  0.00  0.00     0.040 H 
ATOM      3  C3  <0> d           2.561   4.262   0.206  0.00  0.00    -0.054 A 
ATOM      4  C4  <0> d           1.207   3.577   0.009  0.00  0.00    -0.025 A 
ATOM      5  H2  <0> d           0.331   4.058   0.445  0.00  0.00     0.048 H 
ATOM      6  H6  <0> d           2.575   5.194   0.771  0.00  0.00     0.034 H 
ATOM      7  H7  <0> d           3.435   3.623   0.331  0.00  0.00     0.034 H 
ENDROOT
BRANCH   4   8
ATOM      8  C5  <0> d           1.185   2.070   0.002  0.00  0.00    -0.051 A 
ATOM      9  C9  <0> d           2.365   1.343  -0.013  0.00  0.00    -0.060 A 
ATOM     10  C8  <0> d           2.305  -0.038  -0.020  0.00  0.00     0.002 A 
ATOM     11  H11 <0> d           3.319   1.849  -0.018  0.00  0.00     0.086 H 
ATOM     12  N1  <0> d           1.144  -0.663  -0.012  0.00  0.00    -0.273 NA
ATOM     13  H10 <0> d           3.220  -0.612  -0.032  0.00  0.00     0.114 H 
ATOM     14  C7  <0> d           0.002  -0.004   0.002  0.00  0.00     0.002 A 
ATOM     15  C6  <0> d          -0.017   1.378   0.010  0.00  0.00    -0.060 A 
ATOM     16  H9  <0> d          -0.929  -0.550   0.008  0.00  0.00     0.114 H 
ATOM     17  H8  <0> d          -0.955   1.912   0.017  0.00  0.00     0.086 H 
ENDBRANCH   4   8
BRANCH   1  18
ATOM     18  C1  <0> d           1.285   5.603  -1.644  0.00  0.00    -0.072 C 
ATOM     19  H3  <0> d           1.305   6.325  -0.827  0.00  0.00     0.028 H 
ATOM     20  H4  <0> d           1.868   5.986  -2.482  0.00  0.00     0.028 H 
ATOM     21  H5  <0> d           0.255   5.441  -1.961  0.00  0.00     0.028 H 
ENDBRANCH   1  18
TORSDOF 2
