REMARK  4 active torsions:
REMARK  status: ('A' for Active; 'I' for Inactive)
REMARK    1  A    between atoms: C1_1  and  C2_2 
REMARK    2  A    between atoms: C4_5  and  C5_7 
REMARK    3  A    between atoms: C5_7  and  O2_9 
REMARK    4  A    between atoms: O2_9  and  C6_10 
ROOT
ATOM      1  C2  <0> d           0.002  -0.004   0.002  0.00  0.00    -0.045 A 
ATOM      2  H1  <0> d           0.075  -0.468  -0.982  0.00  0.00     0.040 H 
ATOM      3  C3  <0> d          -0.828  -0.728   1.065  0.00  0.00    -0.049 A 
ATOM      4  C4  <0> d           0.700  -0.708   1.168  0.00  0.00     0.034 A 
ATOM      5  H2  <0> d           1.231  -1.634   0.951  0.00  0.00     0.056 H 
ATOM      6  H6  <0> d          -1.388  -0.114   1.770  0.00  0.00     0.034 H 
ATOM      7  H7  <0> d          -1.300  -1.668   0.780  0.00  0.00     0.034 H 
ENDROOT
BRANCH   4   8
ATOM      8  C5  <0> d           1.314   0.159   2.237  0.00  0.00     0.263 C 
ATOM      9  O1  <0> d           1.244   1.363   2.153  0.00  0.00    -0.265 OA
BRANCH   8  10
ATOM     10  O2  <0> d           1.938  -0.405   3.282  0.00  0.00    -0.326 OA
BRANCH  10  11
ATOM     11  C6  <0> d           2.497   0.477   4.258  0.00  0.00     0.013 C 
ATOM     12  H8  <0> d           2.971  -0.107   5.047  0.00  0.00     0.067 H 
ATOM     13  H9  <0> d           3.240   1.118   3.784  0.00  0.00     0.067 H 
ATOM     14  H10 <0> d           1.706   1.093   4.686  0.00  0.00     0.067 H 
ENDBRANCH  10  11
ENDBRANCH   8  10
ENDBRANCH   4   8
BRANCH   1  15
ATOM     15  C1  <0> d          -0.019   1.526   0.010  0.00  0.00    -0.072 C 
ATOM     16  H3  <0> d           1.004   1.903   0.003  0.00  0.00     0.028 H 
ATOM     17  H4  <0> d          -0.546   1.887  -0.873  0.00  0.00     0.028 H 
ATOM     18  H5  <0> d          -0.529   1.877   0.907  0.00  0.00     0.028 H 
ENDBRANCH   1  15
TORSDOF 4
