REMARK  2 active torsions:
REMARK  status: ('A' for Active; 'I' for Inactive)
REMARK    1  A    between atoms: C2_2  and  C4_8 
REMARK    2  A    between atoms: C3_3  and  N3_7 
ROOT
ATOM      1  C1  <0> d           1.741   0.297   2.461  0.00  0.00     0.006 A 
ATOM      2  C2  <0> d           2.132   0.783   1.261  0.00  0.00     0.010 A 
ATOM      3  C3  <0> d           3.435   1.287   1.404  0.00  0.00     0.149 A 
ATOM      4  N1  <0> d           3.803   1.114   2.652  0.00  0.00    -0.157 NA
ATOM      5  N2  <0> d           2.752   0.489   3.334  0.00  0.00    -0.287 N 
ATOM      6  H1  <0> d           2.645   0.163   4.380  0.00  0.00     0.188 HD
ATOM      7  H2  <0> d           0.789  -0.164   2.681  0.00  0.00     0.114 H 
ENDROOT
BRANCH   2   8
ATOM      8  C4  <0> d           1.317   0.779  -0.006  0.00  0.00    -0.023 A 
ATOM      9  C6  <0> d           0.002  -0.004   0.002  0.00  0.00    -0.057 A 
ATOM     10  C5  <0> d          -0.019   1.526   0.010  0.00  0.00    -0.057 A 
ATOM     11  H8  <0> d          -0.056  -0.632  -0.899  0.00  0.00     0.034 H 
ATOM     12  H9  <0> d          -0.039  -0.642   0.897  0.00  0.00     0.034 H 
ATOM     13  H6  <0> d          -0.077   2.152   0.912  0.00  0.00     0.034 H 
ATOM     14  H7  <0> d          -0.094   2.162  -0.884  0.00  0.00     0.034 H 
ATOM     15  H5  <0> d           2.216   0.795  -0.640  0.00  0.00     0.047 H 
ENDBRANCH   2   8
BRANCH   3  16
ATOM     16  N3  <0> d           4.205   1.874   0.393  0.00  0.00    -0.382 N 
ATOM     17  H3  <0> d           5.220   2.237   0.615  0.00  0.00     0.157 HD
ATOM     18  H4  <0> d           3.796   1.972  -0.623  0.00  0.00     0.157 HD
ENDBRANCH   3  16
TORSDOF 2
