REMARK  0 active torsions:
REMARK  status: ('A' for Active; 'I' for Inactive)
ROOT
ATOM      1  C1  <0> d           1.164   2.097   0.002  0.00  0.00    -0.082 A 
ATOM      2  C2  <0> d           2.374   1.427  -0.013  0.00  0.00    -0.082 A 
ATOM      3  C3  <0> d           2.394   0.047  -0.023  0.00  0.00    -0.073 A 
ATOM      4  C4  <0> d           1.208  -0.671  -0.018  0.00  0.00    -0.015 A 
ATOM      5  C5  <0> d           0.002  -0.004   0.002  0.00  0.00    -0.021 A 
ATOM      6  C6  <0> d          -0.017   1.383   0.010  0.00  0.00    -0.075 A 
ATOM      7  C7  <0> d          -1.312  -0.739   0.022  0.00  0.00     0.136 C 
ATOM      8  N1  <0> d          -1.129  -2.131  -0.401  0.00  0.00     0.090 N 
ATOM      9  C8  <0> d          -0.064  -2.768   0.390  0.00  0.00     0.143 C 
ATOM     10  C9  <0> d           1.279  -2.176  -0.038  0.00  0.00     0.130 C 
ATOM     11  H1  <0> d           2.106  -2.535   0.592  0.00  0.00     0.102 H 
ATOM     12  F1  <0> d           1.585  -2.609  -1.333  0.00  0.00    -0.242 F 
ATOM     13  H2  <0> d           1.144   3.177   0.008  0.00  0.00     0.083 H 
ATOM     14  H3  <0> d           3.300   1.983  -0.017  0.00  0.00     0.083 H 
ATOM     15  H4  <0> d           3.339  -0.476  -0.036  0.00  0.00     0.084 H 
ATOM     16  H5  <0> d          -0.961   1.907   0.017  0.00  0.00     0.084 H 
ATOM     17  H6  <0> d          -1.724  -0.727   1.042  0.00  0.00     0.086 H 
ATOM     18  H7  <0> d          -2.018  -0.247  -0.664  0.00  0.00     0.086 H 
ATOM     19  H8  <0> d          -2.067  -2.686  -0.253  0.00  0.00     0.316 HD
ATOM     20  H9  <0> d          -0.235  -2.574   1.459  0.00  0.00     0.084 H 
ATOM     21  H10 <0> d          -0.071  -3.853   0.209  0.00  0.00     0.084 H 
ENDROOT
TORSDOF 0
