REMARK  1 active torsions:
REMARK  status: ('A' for Active; 'I' for Inactive)
REMARK    1  A    between atoms: C4_5  and  N3_7 
ROOT
ATOM      1  C1  <0> d          -0.017   1.383   0.010  0.00  0.00     0.061 A 
ATOM      2  C2  <0> d           0.002  -0.004   0.002  0.00  0.00     0.175 A 
ATOM      3  C3  <0> d           1.232  -0.650  -0.013  0.00  0.00     0.185 A 
ATOM      4  N1  <0> d           2.341   0.073  -0.020  0.00  0.00    -0.048 NA
ATOM      5  C4  <0> d           2.285   1.397  -0.012  0.00  0.00     0.721 A 
ATOM      6  N2  <0> d           1.130   2.044   0.002  0.00  0.00    -0.072 NA
ATOM      7 Cl1  <0> d           1.314  -2.385  -0.024  0.00  0.00    -0.058 Cl
ATOM      8  F1  <0> d          -1.149  -0.711   0.009  0.00  0.00    -0.201 F 
ATOM      9  H1  <0> d          -0.956   1.917   0.017  0.00  0.00     0.120 H 
ENDROOT
BRANCH   5  10
ATOM     10  N3  <0> d           3.466   2.122  -0.020  0.00  0.00    -0.231 N 
ATOM     11  H2  <0> d           3.435   3.222  -0.013  0.00  0.00     0.174 HD
ATOM     12  H3  <0> d           4.433   1.599  -0.032  0.00  0.00     0.174 HD
ENDBRANCH   5  10
TORSDOF 1
