REMARK  2 active torsions:
REMARK  status: ('A' for Active; 'I' for Inactive)
REMARK    1  A    between atoms: C1_1  and  C2_2 
REMARK    2  A    between atoms: C4_4  and  C8_10 
ROOT
ATOM      1  C2  <0> d          -0.022   4.152   0.025  0.00  0.00    -0.044 A 
ATOM      2  C3  <0> d          -1.240   3.488   0.033  0.00  0.00    -0.067 A 
ATOM      3  C4  <0> d          -1.238   2.103   0.019  0.00  0.00    -0.022 A 
ATOM      4  C5  <0> d          -0.017   1.428   0.010  0.00  0.00     0.142 A 
ATOM      5  N1  <0> d           1.127   2.102   0.003  0.00  0.00    -0.249 NA
ATOM      6  C6  <0> d           1.152   3.418   0.009  0.00  0.00     0.009 A 
ATOM      7  C7  <0> d           0.002  -0.004   0.002  0.00  0.00     0.120 C 
ATOM      8  N2  <0> d           0.018  -1.140  -0.004  0.00  0.00    -0.190 NA
ATOM      9  H4  <0> d          -2.169   4.038   0.044  0.00  0.00     0.085 H 
ATOM     10  H5  <0> d           2.102   3.932   0.003  0.00  0.00     0.115 H 
ENDROOT
BRANCH   3  11
ATOM     11  C8  <0> d          -2.535   1.337   0.021  0.00  0.00    -0.048 C 
ATOM     12  H6  <0> d          -2.843   1.146   1.050  0.00  0.00     0.033 H 
ATOM     13  H7  <0> d          -3.303   1.921  -0.486  0.00  0.00     0.033 H 
ATOM     14  H8  <0> d          -2.398   0.388  -0.498  0.00  0.00     0.033 H 
ENDBRANCH   3  11
BRANCH   1  15
ATOM     15  C1  <0> d           0.023   5.658   0.033  0.00  0.00    -0.050 C 
ATOM     16  H1  <0> d           0.024   6.027  -0.993  0.00  0.00     0.033 H 
ATOM     17  H2  <0> d          -0.851   6.045   0.557  0.00  0.00     0.033 H 
ATOM     18  H3  <0> d           0.928   5.992   0.540  0.00  0.00     0.033 H 
ENDBRANCH   1  15
TORSDOF 2
