REMARK  1 active torsions:
REMARK  status: ('A' for Active; 'I' for Inactive)
REMARK    1  A    between atoms: C1_1  and  C2_6 
ROOT
ATOM      1  C1  <0> d          -0.016   1.317   0.009  0.00  0.00     0.218 A 
ATOM      2  N1  <0> d           1.285   1.716  -0.001  0.00  0.00    -0.236 N 
ATOM      3  N2  <0> d           2.006   0.646  -0.014  0.00  0.00    -0.046 NA
ATOM      4  N3  <0> d           1.233  -0.383  -0.012  0.00  0.00    -0.023 NA
ATOM      5  N4  <0> d           0.002  -0.004   0.002  0.00  0.00    -0.105 NA
ATOM      6  H1  <0> d           1.609   2.630   0.001  0.00  0.00     0.192 HD
ENDROOT
BRANCH   1   7
ATOM      7  C2  <0> d          -1.209   2.186   0.031  0.00  0.00     0.218 A 
ATOM      8  N8  <0> d          -1.227   3.507   0.039  0.00  0.00    -0.105 NA
ATOM      9  N7  <0> d          -2.458   3.886   0.056  0.00  0.00    -0.023 NA
ATOM     10  N6  <0> d          -3.231   2.857   0.067  0.00  0.00    -0.046 NA
ATOM     11  N5  <0> d          -2.510   1.787   0.052  0.00  0.00    -0.236 N 
ATOM     12  H2  <0> d          -2.833   0.873   0.055  0.00  0.00     0.192 HD
ENDBRANCH   1   7
TORSDOF 1
