REMARK  4 active torsions:
REMARK  status: ('A' for Active; 'I' for Inactive)
REMARK    1  A    between atoms: C1_1  and  C2_2 
REMARK    2  A    between atoms: C7_9  and  C8_11 
REMARK    3  A    between atoms: C8_11  and  O2_12 
REMARK    4  A    between atoms: O2_12  and  C9_13 
ROOT
ATOM      1  C2  <0> d           2.523   4.193  -0.101  0.00  0.00    -0.046 C 
ATOM      2  H1  <0> d           2.955   3.962  -1.075  0.00  0.00     0.040 H 
ATOM      3  C3  <0> d           2.390   5.710   0.050  0.00  0.00    -0.061 C 
ATOM      4  C4  <0> d           1.868   6.047   1.448  0.00  0.00    -0.059 C 
ATOM      5  C5  <0> d           0.459   5.471   1.618  0.00  0.00    -0.009 C 
ATOM      6  C6  <0> d           0.504   3.990   1.310  0.00  0.00     0.133 C 
ATOM      7  O1  <0> d           0.047   3.183   2.083  0.00  0.00    -0.297 OA
ATOM      8  C7  <0> d           1.139   3.547   0.010  0.00  0.00     0.027 C 
ATOM      9  H2  <0> d           0.573   3.835  -0.763  0.00  0.00     0.055 H 
ATOM     10  H6  <0> d           1.694   6.089  -0.698  0.00  0.00     0.033 H 
ATOM     11  H7  <0> d           3.365   6.175  -0.095  0.00  0.00     0.033 H 
ATOM     12  H8  <0> d           1.836   7.130   1.572  0.00  0.00     0.033 H 
ATOM     13  H9  <0> d           2.531   5.615   2.198  0.00  0.00     0.033 H 
ATOM     14  H10 <0> d          -0.168   5.932   0.989  0.00  0.00     0.044 H 
ATOM     15  H11 <0> d           0.120   5.622   2.643  0.00  0.00     0.044 H 
ENDROOT
BRANCH   8  16
ATOM     16  C8  <0> d           1.280   2.024   0.001  0.00  0.00     0.029 C 
ATOM     17  H12 <0> d           1.834   1.705   0.884  0.00  0.00     0.075 H 
ATOM     18  H13 <0> d           1.817   1.714  -0.896  0.00  0.00     0.075 H 
BRANCH  16  19
ATOM     19  O2  <0> d          -0.017   1.425   0.010  0.00  0.00    -0.395 OA
BRANCH  19  20
ATOM     20  C9  <0> d           0.002  -0.004   0.002  0.00  0.00     0.004 C 
ATOM     21  H14 <0> d           0.512  -0.356  -0.895  0.00  0.00     0.066 H 
ATOM     22  H15 <0> d           0.529  -0.365   0.885  0.00  0.00     0.066 H 
ATOM     23  H16 <0> d          -1.020  -0.381   0.010  0.00  0.00     0.066 H 
ENDBRANCH  19  20
ENDBRANCH  16  19
ENDBRANCH   8  16
BRANCH   1  24
ATOM     24  C1  <0> d           3.432   3.648   1.003  0.00  0.00    -0.072 C 
ATOM     25  H3  <0> d           3.525   2.567   0.895  0.00  0.00     0.028 H 
ATOM     26  H4  <0> d           4.417   4.108   0.923  0.00  0.00     0.028 H 
ATOM     27  H5  <0> d           3.000   3.880   1.976  0.00  0.00     0.028 H 
ENDBRANCH   1  24
TORSDOF 4
