REMARK  2 active torsions:
REMARK  status: ('A' for Active; 'I' for Inactive)
REMARK    1  A    between atoms: C1_1  and  C2_2 
REMARK    2  A    between atoms: C7_7  and  N1_8 
REMARK       I    between atoms: N1_8  and  C8_9 
REMARK       I    between atoms: C8_9  and  N2_11 
ROOT
ATOM      1  C2  <0> d          -3.596   1.747  -0.164  0.00  0.00    -0.035 A 
ATOM      2  C3  <0> d          -4.752   0.997  -0.255  0.00  0.00    -0.075 A 
ATOM      3  C4  <0> d          -4.684  -0.384  -0.256  0.00  0.00    -0.082 A 
ATOM      4  C5  <0> d          -3.459  -1.019  -0.166  0.00  0.00    -0.081 A 
ATOM      5  C6  <0> d          -2.299  -0.275  -0.080  0.00  0.00    -0.057 A 
ATOM      6  C7  <0> d          -2.364   1.113  -0.074  0.00  0.00     0.042 A 
ATOM      7  H4  <0> d          -5.711   1.490  -0.325  0.00  0.00     0.084 H 
ATOM      8  H5  <0> d          -5.590  -0.968  -0.327  0.00  0.00     0.083 H 
ATOM      9  H6  <0> d          -3.409  -2.097  -0.167  0.00  0.00     0.083 H 
ATOM     10  H7  <0> d          -1.342  -0.771  -0.013  0.00  0.00     0.086 H 
ENDROOT
BRANCH   6  11
ATOM     11  N1  <0> d          -1.191   1.870   0.018  0.00  0.00    -0.309 N 
ATOM     12  C8  <0> d          -0.089   1.339   0.585  0.00  0.00     0.318 C 
ATOM     13  O1  <0> d          -0.143   0.243   1.109  0.00  0.00    -0.247 OA
ATOM     14  N2  <0> d           1.073   2.021   0.567  0.00  0.00    -0.352 N 
ATOM     15  H9  <0> d           1.867   1.638   0.972  0.00  0.00     0.160 HD
ATOM     16  H10 <0> d           1.116   2.896   0.150  0.00  0.00     0.160 HD
ATOM     17  H8  <0> d          -1.170   2.776  -0.327  0.00  0.00     0.170 HD
ENDBRANCH   6  11
BRANCH   1  18
ATOM     18  C1  <0> d          -3.671   3.252  -0.164  0.00  0.00    -0.049 C 
ATOM     19  H1  <0> d          -3.612   3.619  -1.189  0.00  0.00     0.033 H 
ATOM     20  H2  <0> d          -4.614   3.569   0.281  0.00  0.00     0.033 H 
ATOM     21  H3  <0> d          -2.841   3.658   0.415  0.00  0.00     0.033 H 
ENDBRANCH   1  18
TORSDOF 2
