REMARK  7 active torsions:
REMARK  status: ('A' for Active; 'I' for Inactive)
REMARK    1  A    between atoms: C1_1  and  C2_2 
REMARK    2  A    between atoms: C2_2  and  C3_3 
REMARK    3  A    between atoms: C3_3  and  C4_5 
REMARK    4  A    between atoms: C3_3  and  C6_8 
REMARK    5  A    between atoms: C4_5  and  C5_6 
REMARK    6  A    between atoms: C6_8  and  C7_9 
REMARK    7  A    between atoms: C6_8  and  C8_10 
ROOT
ATOM      1  C3  <0> d          -0.891   1.424   1.322  0.00  0.00    -0.043 C 
ATOM      2  H1  <0> d          -1.965   1.459   1.505  0.00  0.00     0.041 H 
ENDROOT
BRANCH   1   3
ATOM      3  C2  <0> d          -0.179   0.890   2.566  0.00  0.00    -0.064 C 
ATOM      4  H5  <0> d          -0.456  -0.152   2.725  0.00  0.00     0.033 H 
ATOM      5  H6  <0> d           0.900   0.962   2.426  0.00  0.00     0.033 H 
BRANCH   3   6
ATOM      6  C1  <0> d          -0.591   1.719   3.784  0.00  0.00    -0.076 C 
ATOM      7  H2  <0> d          -0.379   2.771   3.597  0.00  0.00     0.027 H 
ATOM      8  H3  <0> d          -1.658   1.590   3.967  0.00  0.00     0.027 H 
ATOM      9  H4  <0> d          -0.030   1.385   4.657  0.00  0.00     0.027 H 
ENDBRANCH   3   6
ENDBRANCH   1   3
BRANCH   1  10
ATOM     10  C4  <0> d          -0.607   0.500   0.136  0.00  0.00     0.019 C 
ATOM     11  H7  <0> d          -0.680  -0.538   0.458  0.00  0.00     0.049 H 
ATOM     12  H8  <0> d           0.398   0.693  -0.242  0.00  0.00     0.049 H 
BRANCH  10  13
ATOM     13  C5  <0> d          -1.612   0.760  -0.956  0.00  0.00     0.172 C 
ATOM     14  O1  <0> d          -2.571   1.463  -0.740  0.00  0.00    -0.648 OA
ATOM     15  O2  <0> d          -1.443   0.211  -2.169  0.00  0.00    -0.648 OA
ENDBRANCH  10  13
ENDBRANCH   1  10
BRANCH   1  16
ATOM     16  C6  <0> d          -0.382   2.831   1.006  0.00  0.00    -0.057 C 
ATOM     17  H9  <0> d          -0.474   3.458   1.893  0.00  0.00     0.039 H 
BRANCH  16  18
ATOM     18  C7  <0> d           1.087   2.759   0.583  0.00  0.00    -0.073 C 
ATOM     19  H10 <0> d           1.166   2.226  -0.365  0.00  0.00     0.028 H 
ATOM     20  H11 <0> d           1.482   3.768   0.467  0.00  0.00     0.028 H 
ATOM     21  H12 <0> d           1.659   2.231   1.345  0.00  0.00     0.028 H 
ENDBRANCH  16  18
BRANCH  16  22
ATOM     22  C8  <0> d          -1.211   3.431  -0.131  0.00  0.00    -0.073 C 
ATOM     23  H13 <0> d          -2.269   3.382   0.126  0.00  0.00     0.028 H 
ATOM     24  H14 <0> d          -0.922   4.471  -0.282  0.00  0.00     0.028 H 
ATOM     25  H15 <0> d          -1.033   2.868  -1.047  0.00  0.00     0.028 H 
ENDBRANCH  16  22
ENDBRANCH   1  16
TORSDOF 7
