REMARK  3 active torsions:
REMARK  status: ('A' for Active; 'I' for Inactive)
REMARK    1  A    between atoms: C1_1  and  O1_2 
REMARK    2  A    between atoms: O1_2  and  C2_3 
REMARK    3  A    between atoms: C2_3  and  C3_5 
ROOT
ATOM      1  C3  <0> d           1.284   3.102   0.055  0.00  0.00     0.107 C 
ATOM      2  H1  <0> d           1.566   3.405   1.064  0.00  0.00     0.070 H 
ATOM      3  C4  <0> d          -0.051   3.752  -0.317  0.00  0.00    -0.043 C 
ATOM      4  C5  <0> d          -1.161   3.078   0.498  0.00  0.00    -0.049 C 
ATOM      5  C6  <0> d          -1.308   1.631   0.017  0.00  0.00    -0.005 C 
ATOM      6  N1  <0> d          -0.011   0.966   0.007  0.00  0.00    -0.360 N 
ATOM      7  C7  <0> d           1.158   1.607  -0.000  0.00  0.00     0.231 C 
ATOM      8  O3  <0> d           2.174   0.947  -0.056  0.00  0.00    -0.273 OA
ATOM      9  H5  <0> d          -0.019   4.816  -0.084  0.00  0.00     0.035 H 
ATOM     10  H6  <0> d          -0.242   3.614  -1.381  0.00  0.00     0.035 H 
ATOM     11  H7  <0> d          -0.898   3.091   1.556  0.00  0.00     0.035 H 
ATOM     12  H8  <0> d          -2.100   3.609   0.346  0.00  0.00     0.035 H 
ATOM     13  H9  <0> d          -1.725   1.623  -0.990  0.00  0.00     0.064 H 
ATOM     14  H10 <0> d          -1.982   1.097   0.688  0.00  0.00     0.064 H 
ATOM     15  H11 <0> d           0.002  -0.004   0.002  0.00  0.00     0.162 HD
ENDROOT
BRANCH   1  16
ATOM     16  C2  <0> d           2.345   3.551  -0.916  0.00  0.00     0.271 C 
ATOM     17  O2  <0> d           2.061   4.306  -1.816  0.00  0.00    -0.264 OA
BRANCH  16  18
ATOM     18  O1  <0> d           3.607   3.113  -0.782  0.00  0.00    -0.326 OA
BRANCH  18  19
ATOM     19  C1  <0> d           4.577   3.587  -1.754  0.00  0.00     0.013 C 
ATOM     20  H2  <0> d           5.554   3.158  -1.531  0.00  0.00     0.067 H 
ATOM     21  H3  <0> d           4.266   3.284  -2.754  0.00  0.00     0.067 H 
ATOM     22  H4  <0> d           4.637   4.674  -1.706  0.00  0.00     0.067 H 
ENDBRANCH  18  19
ENDBRANCH  16  18
ENDBRANCH   1  16
TORSDOF 3
