REMARK  4 active torsions:
REMARK  status: ('A' for Active; 'I' for Inactive)
REMARK    1  A    between atoms: C1_1  and  C2_2 
REMARK    2  A    between atoms: C2_2  and  C3_3 
REMARK    3  A    between atoms: C2_2  and  C4_4 
REMARK    4  A    between atoms: C2_2  and  O1_7 
ROOT
ATOM      1  C4  <0> d           1.150   3.027   0.007  0.00  0.00    -0.052 C 
ATOM      2  C5  <0> d           1.042   4.196   0.015  0.00  0.00     0.008 C 
ATOM      3 Cl1  <0> d           0.890   5.829   0.025  0.00  0.00    -0.023 Cl
ENDROOT
BRANCH   1   4
ATOM      4  C2  <0> d           1.286   1.562  -0.002  0.00  0.00     0.115 C 
BRANCH   4   5
ATOM      5  C1  <0> d           2.064   1.114   1.238  0.00  0.00    -0.038 C 
ATOM      6  H1  <0> d           2.164   0.029   1.231  0.00  0.00     0.033 H 
ATOM      7  H2  <0> d           3.053   1.571   1.231  0.00  0.00     0.033 H 
ATOM      8  H3  <0> d           1.527   1.423   2.135  0.00  0.00     0.033 H 
ENDBRANCH   4   5
BRANCH   4   9
ATOM      9  C3  <0> d           2.040   1.127  -1.261  0.00  0.00    -0.038 C 
ATOM     10  H4  <0> d           1.486   1.446  -2.144  0.00  0.00     0.033 H 
ATOM     11  H5  <0> d           3.029   1.584  -1.268  0.00  0.00     0.033 H 
ATOM     12  H6  <0> d           2.140   0.042  -1.268  0.00  0.00     0.033 H 
ENDBRANCH   4   9
BRANCH   4  13
ATOM     13  O1  <0> d          -0.011   0.963   0.007  0.00  0.00    -0.378 OA
ATOM     14  H7  <0> d           0.002  -0.004   0.002  0.00  0.00     0.211 HD
ENDBRANCH   4  13
ENDBRANCH   1   4
TORSDOF 4
