REMARK  6 active torsions:
REMARK  status: ('A' for Active; 'I' for Inactive)
REMARK    1  A    between atoms: C1_1  and  N1_2 
REMARK    2  A    between atoms: C4_5  and  C5_7 
REMARK    3  A    between atoms: C5_7  and  O1_8 
REMARK    4  A    between atoms: C5_7  and  O2_10 
REMARK    5  A    between atoms: O1_8  and  C6_9 
REMARK    6  A    between atoms: O2_10  and  C7_11 
ROOT
ATOM      1  C5  <0> d           2.442   1.127  -0.329  0.00  0.00     0.173 C 
ATOM      2  H6  <0> d           2.857   0.718  -1.251  0.00  0.00     0.139 H 
ENDROOT
BRANCH   1   3
ATOM      3  C4  <0> d           0.964   1.362  -0.505  0.00  0.00     0.110 A 
ATOM      4  C3  <0> d          -0.052   0.441  -0.231  0.00  0.00    -0.036 A 
ATOM      5  C2  <0> d          -1.236   1.027  -0.523  0.00  0.00     0.000 A 
ATOM      6  H5  <0> d           0.085  -0.563   0.143  0.00  0.00     0.089 H 
ATOM      7  N1  <0> d          -0.980   2.278  -0.958  0.00  0.00    -0.285 N 
ATOM      8  H4  <0> d          -2.212   0.575  -0.423  0.00  0.00     0.114 H 
ATOM      9  N2  <0> d           0.409   2.464  -0.941  0.00  0.00    -0.173 NA
BRANCH   7  10
ATOM     10  C1  <0> d          -1.976   3.265  -1.379  0.00  0.00     0.002 C 
ATOM     11  H1  <0> d          -2.164   3.159  -2.447  0.00  0.00     0.059 H 
ATOM     12  H2  <0> d          -2.903   3.103  -0.829  0.00  0.00     0.059 H 
ATOM     13  H3  <0> d          -1.603   4.269  -1.174  0.00  0.00     0.059 H 
ENDBRANCH   7  10
ENDBRANCH   1   3
BRANCH   1  14
ATOM     14  O1  <0> d           3.088   2.364  -0.023  0.00  0.00    -0.360 OA
BRANCH  14  15
ATOM     15  C6  <0> d           4.467   2.407  -0.396  0.00  0.00     0.007 C 
ATOM     16  H7  <0> d           4.987   1.553   0.037  0.00  0.00     0.066 H 
ATOM     17  H8  <0> d           4.551   2.371  -1.482  0.00  0.00     0.066 H 
ATOM     18  H9  <0> d           4.914   3.330  -0.027  0.00  0.00     0.066 H 
ENDBRANCH  14  15
ENDBRANCH   1  14
BRANCH   1  19
ATOM     19  O2  <0> d           2.653   0.201   0.739  0.00  0.00    -0.360 OA
BRANCH  19  20
ATOM     20  C7  <0> d           3.977  -0.333   0.792  0.00  0.00     0.007 C 
ATOM     21  H10 <0> d           4.302  -0.600  -0.214  0.00  0.00     0.066 H 
ATOM     22  H11 <0> d           4.654   0.414   1.206  0.00  0.00     0.066 H 
ATOM     23  H12 <0> d           3.986  -1.221   1.424  0.00  0.00     0.066 H 
ENDBRANCH  19  20
ENDBRANCH   1  19
TORSDOF 6
