REMARK  1 active torsions:
REMARK  status: ('A' for Active; 'I' for Inactive)
REMARK    1  A    between atoms: C1_1  and  C2_2 
ROOT
ATOM      1  C2  <0> d           2.507   1.441  -0.021  0.00  0.00    -0.029 C 
ATOM      2  H1  <0> d           2.891   1.444  -1.041  0.00  0.00     0.047 H 
ATOM      3  C3  <0> d           2.384  -0.002   0.469  0.00  0.00    -0.043 C 
ATOM      4  C4  <0> d           1.260  -0.696  -0.312  0.00  0.00    -0.007 C 
ATOM      5  N1  <0> d           0.002  -0.004   0.002  0.00  0.00    -0.389 N 
ATOM      6  C5  <0> d          -0.017   1.395   0.010  0.00  0.00     0.034 A 
ATOM      7  C6  <0> d           1.164   2.122   0.002  0.00  0.00    -0.028 A 
ATOM      8  C7  <0> d           1.114   3.506   0.015  0.00  0.00    -0.074 A 
ATOM      9  C8  <0> d          -0.103   4.160   0.032  0.00  0.00    -0.082 A 
ATOM     10  C9  <0> d          -1.281   3.435   0.036  0.00  0.00    -0.081 A 
ATOM     11  C10 <0> d          -1.240   2.055   0.031  0.00  0.00    -0.057 A 
ATOM     12  H5  <0> d           2.147  -0.007   1.533  0.00  0.00     0.036 H 
ATOM     13  H6  <0> d           3.324  -0.526   0.299  0.00  0.00     0.036 H 
ATOM     14  H7  <0> d           1.192  -1.741  -0.009  0.00  0.00     0.064 H 
ATOM     15  H8  <0> d           1.459  -0.633  -1.381  0.00  0.00     0.064 H 
ATOM     16  H9  <0> d          -0.802  -0.509   0.201  0.00  0.00     0.159 HD
ATOM     17  H10 <0> d           2.031   4.076   0.011  0.00  0.00     0.084 H 
ATOM     18  H11 <0> d          -0.134   5.239   0.042  0.00  0.00     0.083 H 
ATOM     19  H12 <0> d          -2.231   3.949   0.048  0.00  0.00     0.083 H 
ATOM     20  H13 <0> d          -2.159   1.488   0.039  0.00  0.00     0.086 H 
ENDROOT
BRANCH   1  21
ATOM     21  C1  <0> d           3.476   2.202   0.886  0.00  0.00    -0.069 C 
ATOM     22  H2  <0> d           4.454   1.722   0.857  0.00  0.00     0.028 H 
ATOM     23  H3  <0> d           3.565   3.232   0.539  0.00  0.00     0.028 H 
ATOM     24  H4  <0> d           3.098   2.195   1.908  0.00  0.00     0.028 H 
ENDBRANCH   1  21
TORSDOF 1
