REMARK  1 active torsions:
REMARK  status: ('A' for Active; 'I' for Inactive)
REMARK    1  A    between atoms: C3_3  and  N1_10 
ROOT
ATOM      1  C1  <0> d          -0.017   1.378   0.010  0.00  0.00    -0.078 A 
ATOM      2  C2  <0> d           1.169   2.089   0.002  0.00  0.00    -0.055 A 
ATOM      3  C3  <0> d           2.383   1.417  -0.013  0.00  0.00     0.062 A 
ATOM      4  C4  <0> d           2.405   0.026  -0.021  0.00  0.00     0.131 A 
ATOM      5  C5  <0> d           1.211  -0.685  -0.013  0.00  0.00     0.107 A 
ATOM      6  C6  <0> d           0.002  -0.004   0.002  0.00  0.00    -0.048 A 
ATOM      7  O1  <0> d           1.496  -2.020  -0.023  0.00  0.00    -0.323 OA
ATOM      8  C7  <0> d           2.868  -2.117  -0.449  0.00  0.00     0.115 C 
ATOM      9  O2  <0> d           3.443  -0.863  -0.036  0.00  0.00    -0.321 OA
ATOM     10  H1  <0> d          -0.960   1.903   0.026  0.00  0.00     0.083 H 
ATOM     11  H2  <0> d           1.150   3.169   0.008  0.00  0.00     0.087 H 
ATOM     12  H3  <0> d          -0.927  -0.555   0.008  0.00  0.00     0.087 H 
ATOM     13  H4  <0> d           3.366  -2.949   0.048  0.00  0.00     0.118 H 
ATOM     14  H5  <0> d           2.926  -2.226  -1.532  0.00  0.00     0.118 H 
ENDROOT
BRANCH   3  15
ATOM     15  N1  <0> d           3.583   2.138  -0.021  0.00  0.00    -0.397 N 
ATOM     16  H6  <0> d           3.566   3.107  -0.016  0.00  0.00     0.156 HD
ATOM     17  H7  <0> d           4.431   1.667  -0.032  0.00  0.00     0.156 HD
ENDBRANCH   3  15
TORSDOF 1
