REMARK  1 active torsions:
REMARK  status: ('A' for Active; 'I' for Inactive)
REMARK    1  A    between atoms: C5_6  and  C6_7 
ROOT
ATOM      1  C1  <0> d           1.344   2.856  -1.251  0.00  0.00    -0.033 C 
ATOM      2  C2  <0> d           2.695   3.575  -1.291  0.00  0.00     0.020 C 
ATOM      3  O1  <0> d           3.748   2.609  -1.273  0.00  0.00    -0.391 OA
ATOM      4  C3  <0> d           3.767   1.788  -0.104  0.00  0.00     0.020 C 
ATOM      5  C4  <0> d           2.459   0.997  -0.016  0.00  0.00    -0.033 C 
ATOM      6  C5  <0> d           1.280   1.975   0.000  0.00  0.00     0.034 C 
ATOM      7  H1  <0> d           1.236   2.234  -2.140  0.00  0.00     0.037 H 
ATOM      8  H2  <0> d           0.541   3.592  -1.220  0.00  0.00     0.037 H 
ATOM      9  H3  <0> d           2.786   4.228  -0.423  0.00  0.00     0.074 H 
ATOM     10  H4  <0> d           2.763   4.170  -2.202  0.00  0.00     0.074 H 
ATOM     11  H5  <0> d           3.872   2.417   0.780  0.00  0.00     0.074 H 
ATOM     12  H6  <0> d           4.607   1.096  -0.159  0.00  0.00     0.074 H 
ATOM     13  H7  <0> d           2.453   0.404   0.898  0.00  0.00     0.037 H 
ATOM     14  H8  <0> d           2.373   0.338  -0.880  0.00  0.00     0.037 H 
ATOM     15  H9  <0> d           1.338   2.601   0.891  0.00  0.00     0.056 H 
ENDROOT
BRANCH   6  16
ATOM     16  C6  <0> d          -0.014   1.204   0.009  0.00  0.00     0.177 C 
ATOM     17  O2  <0> d           0.002  -0.004   0.002  0.00  0.00    -0.648 OA
ATOM     18  O3  <0> d          -1.186   1.859   0.018  0.00  0.00    -0.648 OA
ENDBRANCH   6  16
TORSDOF 1
