REMARK  3 active torsions:
REMARK  status: ('A' for Active; 'I' for Inactive)
REMARK    1  A    between atoms: C1_1  and  C2_2 
REMARK    2  A    between atoms: C5_7  and  C6_9 
REMARK    3  A    between atoms: C6_9  and  O2_10 
ROOT
ATOM      1  C2  <0> d           0.002  -0.004   0.002  0.00  0.00    -0.030 C 
ATOM      2  H1  <0> d          -1.014  -0.399  -0.003  0.00  0.00     0.043 H 
ATOM      3  C3  <0> d           0.792  -0.528  -1.218  0.00  0.00     0.023 C 
ATOM      4  O1  <0> d           1.498  -1.690  -0.729  0.00  0.00    -0.390 OA
ATOM      5  C4  <0> d           1.962  -1.327   0.590  0.00  0.00     0.025 C 
ATOM      6  C5  <0> d           0.786  -0.542   1.220  0.00  0.00    -0.008 C 
ATOM      7  H2  <0> d           0.158  -1.204   1.816  0.00  0.00     0.047 H 
ATOM      8  H6  <0> d           0.110  -0.808  -2.020  0.00  0.00     0.074 H 
ATOM      9  H7  <0> d           1.498   0.226  -1.565  0.00  0.00     0.074 H 
ATOM     10  H8  <0> d           2.177  -2.220   1.175  0.00  0.00     0.075 H 
ATOM     11  H9  <0> d           2.847  -0.695   0.519  0.00  0.00     0.075 H 
ENDROOT
BRANCH   6  12
ATOM     12  C6  <0> d           1.309   0.615   2.074  0.00  0.00     0.022 C 
ATOM     13  H10 <0> d           2.039   1.188   1.502  0.00  0.00     0.074 H 
ATOM     14  H11 <0> d           0.479   1.264   2.355  0.00  0.00     0.074 H 
BRANCH  12  15
ATOM     15  O2  <0> d           1.928   0.096   3.252  0.00  0.00    -0.400 OA
ATOM     16  H12 <0> d           2.284   0.775   3.842  0.00  0.00     0.209 HD
ENDBRANCH  12  15
ENDBRANCH   6  12
BRANCH   1  17
ATOM     17  C1  <0> d          -0.019   1.526   0.010  0.00  0.00    -0.070 C 
ATOM     18  H3  <0> d           1.004   1.903   0.003  0.00  0.00     0.028 H 
ATOM     19  H4  <0> d          -0.546   1.887  -0.873  0.00  0.00     0.028 H 
ATOM     20  H5  <0> d          -0.529   1.877   0.907  0.00  0.00     0.028 H 
ENDBRANCH   1  17
TORSDOF 3
