REMARK  2 active torsions:
REMARK  status: ('A' for Active; 'I' for Inactive)
REMARK    1  A    between atoms: C1_1  and  C2_2 
REMARK    2  A    between atoms: C4_5  and  N3_9 
ROOT
ATOM      1  C2  <0> d          -0.017   1.377   0.010  0.00  0.00     0.050 A 
ATOM      2  C3  <0> d           0.002  -0.004   0.002  0.00  0.00     0.028 A 
ATOM      3  N1  <0> d           1.155  -0.652  -0.013  0.00  0.00    -0.239 NA
ATOM      4  C4  <0> d           2.295   0.025  -0.020  0.00  0.00     0.162 A 
ATOM      5  C5  <0> d           2.273   1.419  -0.012  0.00  0.00     0.171 A 
ATOM      6  N2  <0> d           1.117   2.058   0.002  0.00  0.00    -0.236 NA
ATOM      7 Cl1  <0> d           3.761   2.313  -0.022  0.00  0.00    -0.058 Cl
ATOM      8  H4  <0> d          -0.926  -0.556   0.008  0.00  0.00     0.117 H 
ENDROOT
BRANCH   1   9
ATOM      9  C1  <0> d          -1.333   2.111   0.020  0.00  0.00    -0.034 C 
ATOM     10  H1  <0> d          -2.158   1.383   0.025  0.00  0.00     0.035 H 
ATOM     11  H2  <0> d          -1.407   2.743  -0.877  0.00  0.00     0.035 H 
ATOM     12  H3  <0> d          -1.395   2.741   0.919  0.00  0.00     0.035 H 
ENDBRANCH   1   9
BRANCH   4  13
ATOM     13  N3  <0> d           3.509  -0.653  -0.035  0.00  0.00    -0.381 N 
ATOM     14  H5  <0> d           4.454  -0.089  -0.042  0.00  0.00     0.157 HD
ATOM     15  H6  <0> d           3.525  -1.753  -0.042  0.00  0.00     0.157 HD
ENDBRANCH   4  13
TORSDOF 2
