REMARK  4 active torsions:
REMARK  status: ('A' for Active; 'I' for Inactive)
REMARK    1  A    between atoms: C1_1  and  C2_2 
REMARK    2  A    between atoms: C2_2  and  C8_11 
REMARK    3  A    between atoms: C4_5  and  C6_8 
REMARK    4  A    between atoms: C4_5  and  O3_10 
ROOT
ATOM      1  C2  <0> d           0.002  -0.004   0.002  0.00  0.00     0.157 C 
ATOM      2  O1  <0> d          -1.339  -0.499   0.012  0.00  0.00    -0.353 OA
ATOM      3  C3  <0> d          -2.088  -0.113   1.169  0.00  0.00     0.057 C 
ATOM      4  C4  <0> d          -1.358  -0.610   2.422  0.00  0.00     0.118 C 
ATOM      5  C5  <0> d           0.083  -0.090   2.395  0.00  0.00     0.057 C 
ATOM      6  O2  <0> d           0.694  -0.478   1.160  0.00  0.00    -0.353 OA
ATOM      7  H4  <0> d          -2.172   0.973   1.203  0.00  0.00     0.079 H 
ATOM      8  H5  <0> d          -3.082  -0.557   1.125  0.00  0.00     0.079 H 
ATOM      9  H6  <0> d           0.080   0.997   2.476  0.00  0.00     0.079 H 
ATOM     10  H7  <0> d           0.641  -0.518   3.228  0.00  0.00     0.079 H 
ENDROOT
BRANCH   1  11
ATOM     11  C1  <0> d          -0.019   1.526   0.010  0.00  0.00    -0.026 C 
ATOM     12  H1  <0> d           1.004   1.903   0.003  0.00  0.00     0.035 H 
ATOM     13  H2  <0> d          -0.546   1.887  -0.873  0.00  0.00     0.035 H 
ATOM     14  H3  <0> d          -0.529   1.877   0.907  0.00  0.00     0.035 H 
ENDBRANCH   1  11
BRANCH   1  15
ATOM     15  C8  <0> d           0.718  -0.497  -1.257  0.00  0.00    -0.026 C 
ATOM     16  H12 <0> d           1.741  -0.120  -1.264  0.00  0.00     0.035 H 
ATOM     17  H13 <0> d           0.733  -1.587  -1.263  0.00  0.00     0.035 H 
ATOM     18  H14 <0> d           0.191  -0.136  -2.140  0.00  0.00     0.035 H 
ENDBRANCH   1  15
BRANCH   4  19
ATOM     19  C6  <0> d          -2.059  -0.093   3.652  0.00  0.00    -0.075 C 
ATOM     20  C7  <0> d          -2.551  -0.934   4.527  0.00  0.00    -0.122 C 
ATOM     21  H9  <0> d          -3.053  -0.564   5.409  0.00  0.00     0.066 H 
ATOM     22  H10 <0> d          -2.456  -1.998   4.367  0.00  0.00     0.066 H 
ATOM     23  H8  <0> d          -2.154   0.971   3.812  0.00  0.00     0.080 H 
ENDBRANCH   4  19
BRANCH   4  24
ATOM     24  O3  <0> d          -1.352  -2.039   2.437  0.00  0.00    -0.381 OA
ATOM     25  H11 <0> d          -0.905  -2.422   3.204  0.00  0.00     0.211 HD
ENDBRANCH   4  24
TORSDOF 4
