REMARK  4 active torsions:
REMARK  status: ('A' for Active; 'I' for Inactive)
REMARK    1  A    between atoms: C1_1  and  C2_2 
REMARK    2  A    between atoms: C5_6  and  O1_9 
REMARK    3  A    between atoms: C6_7  and  N2_8 
REMARK    4  A    between atoms: O1_9  and  C7_10 
ROOT
ATOM      1  C2  <0> d          -0.017   1.384   0.010  0.00  0.00    -0.030 A 
ATOM      2  C3  <0> d           0.002  -0.004   0.002  0.00  0.00    -0.058 A 
ATOM      3  C4  <0> d           1.214  -0.664  -0.013  0.00  0.00     0.006 A 
ATOM      4  N1  <0> d           2.352   0.005  -0.020  0.00  0.00    -0.235 NA
ATOM      5  C5  <0> d           2.382   1.326  -0.014  0.00  0.00     0.191 A 
ATOM      6  C6  <0> d           1.196   2.062   0.002  0.00  0.00     0.085 A 
ATOM      7  H4  <0> d          -0.923  -0.562   0.007  0.00  0.00     0.086 H 
ATOM      8  H5  <0> d           1.232  -1.744  -0.019  0.00  0.00     0.114 H 
ENDROOT
BRANCH   5   9
ATOM      9  O1  <0> d           3.575   1.973  -0.021  0.00  0.00    -0.338 OA
BRANCH   9  10
ATOM     10  C7  <0> d           4.752   1.163  -0.036  0.00  0.00     0.012 C 
ATOM     11  H8  <0> d           4.768   0.528   0.850  0.00  0.00     0.067 H 
ATOM     12  H9  <0> d           4.752   0.538  -0.929  0.00  0.00     0.067 H 
ATOM     13  H10 <0> d           5.634   1.803  -0.041  0.00  0.00     0.067 H 
ENDBRANCH   9  10
ENDBRANCH   5   9
BRANCH   6  14
ATOM     14  N2  <0> d           1.228   3.461   0.009  0.00  0.00    -0.395 N 
ATOM     15  H6  <0> d           0.399   3.965   0.019  0.00  0.00     0.156 HD
ATOM     16  H7  <0> d           2.079   3.926   0.003  0.00  0.00     0.156 HD
ENDBRANCH   6  14
BRANCH   1  17
ATOM     17  C1  <0> d          -1.322   2.138   0.020  0.00  0.00    -0.049 C 
ATOM     18  H1  <0> d          -1.631   2.314   1.050  0.00  0.00     0.033 H 
ATOM     19  H2  <0> d          -1.194   3.093  -0.489  0.00  0.00     0.033 H 
ATOM     20  H3  <0> d          -2.084   1.551  -0.493  0.00  0.00     0.033 H 
ENDBRANCH   1  17
TORSDOF 4
