REMARK  2 active torsions:
REMARK  status: ('A' for Active; 'I' for Inactive)
REMARK    1  A    between atoms: C1_1  and  C2_2 
REMARK    2  A    between atoms: C2_2  and  N1_3 
ROOT
ATOM      1  N1  <0> d          -1.372  -0.511   0.012  0.00  0.00    -0.352 N 
ATOM      2  C3  <0> d          -2.003  -0.749   1.305  0.00  0.00    -0.002 C 
ATOM      3  C4  <0> d          -3.524  -0.810   1.155  0.00  0.00    -0.050 C 
ATOM      4  C5  <0> d          -3.867  -1.793   0.029  0.00  0.00    -0.056 C 
ATOM      5  C6  <0> d          -3.388  -1.197  -1.296  0.00  0.00     0.009 C 
ATOM      6  C7  <0> d          -1.970  -0.721  -1.161  0.00  0.00     0.219 C 
ATOM      7  O1  <0> d          -1.333  -0.522  -2.174  0.00  0.00    -0.273 OA
ATOM      8  H6  <0> d          -1.643  -1.693   1.713  0.00  0.00     0.064 H 
ATOM      9  H7  <0> d          -1.740   0.059   1.988  0.00  0.00     0.064 H 
ATOM     10  H8  <0> d          -3.969  -1.153   2.089  0.00  0.00     0.035 H 
ATOM     11  H9  <0> d          -3.906   0.180   0.906  0.00  0.00     0.035 H 
ATOM     12  H10 <0> d          -3.366  -2.744   0.207  0.00  0.00     0.033 H 
ATOM     13  H11 <0> d          -4.946  -1.947  -0.006  0.00  0.00     0.033 H 
ATOM     14  H12 <0> d          -3.445  -1.956  -2.076  0.00  0.00     0.047 H 
ATOM     15  H13 <0> d          -4.025  -0.354  -1.566  0.00  0.00     0.047 H 
ENDROOT
BRANCH   1  16
ATOM     16  C2  <0> d           0.002  -0.004   0.002  0.00  0.00    -0.006 C 
ATOM     17  H4  <0> d           0.512  -0.356  -0.895  0.00  0.00     0.063 H 
ATOM     18  H5  <0> d           0.529  -0.365   0.885  0.00  0.00     0.063 H 
BRANCH  16  19
ATOM     19  C1  <0> d          -0.019   1.526   0.010  0.00  0.00    -0.061 C 
ATOM     20  H1  <0> d           1.004   1.903   0.003  0.00  0.00     0.029 H 
ATOM     21  H2  <0> d          -0.546   1.887  -0.873  0.00  0.00     0.029 H 
ATOM     22  H3  <0> d          -0.529   1.877   0.907  0.00  0.00     0.029 H 
ENDBRANCH  16  19
ENDBRANCH   1  16
TORSDOF 2
