REMARK  1 active torsions:
REMARK  status: ('A' for Active; 'I' for Inactive)
REMARK    1  A    between atoms: C5_6  and  C7_9 
REMARK       I    between atoms: C7_9  and  N1_11 
ROOT
ATOM      1  C1  <0> d          -0.902   3.118  -1.143  0.00  0.00    -0.064 C 
ATOM      2  C2  <0> d          -0.761   1.597  -1.227  0.00  0.00    -0.059 C 
ATOM      3  C3  <0> d          -0.013   1.086   0.008  0.00  0.00    -0.009 C 
ATOM      4  C4  <0> d          -0.728   1.577   1.247  0.00  0.00     0.140 C 
ATOM      5  O1  <0> d          -1.040   0.812   2.127  0.00  0.00    -0.297 OA
ATOM      6  C5  <0> d          -1.049   3.053   1.351  0.00  0.00     0.081 C 
ATOM      7  H1  <0> d          -0.201   3.571   1.465  0.00  0.00     0.066 H 
ATOM      8  C6  <0> d          -1.760   3.493   0.067  0.00  0.00    -0.047 C 
ATOM      9  H2  <0> d           0.085   3.568  -1.040  0.00  0.00     0.033 H 
ATOM     10  H3  <0> d          -1.376   3.489  -2.052  0.00  0.00     0.033 H 
ATOM     11  H4  <0> d          -0.203   1.333  -2.126  0.00  0.00     0.033 H 
ATOM     12  H5  <0> d          -1.751   1.142  -1.267  0.00  0.00     0.033 H 
ATOM     13  H6  <0> d           0.004   0.086  -0.002  0.00  0.00     0.044 H 
ATOM     14  H7  <0> d           1.009   1.466   0.000  0.00  0.00     0.044 H 
ATOM     15  H8  <0> d          -1.909   4.572   0.086  0.00  0.00     0.034 H 
ATOM     16  H9  <0> d          -2.726   2.993  -0.003  0.00  0.00     0.034 H 
ENDROOT
BRANCH   6  17
ATOM     17  C7  <0> d          -1.946   3.298   2.536  0.00  0.00     0.226 C 
ATOM     18  O2  <0> d          -3.049   3.777   2.373  0.00  0.00    -0.273 OA
ATOM     19  N1  <0> d          -1.525   2.984   3.777  0.00  0.00    -0.369 N 
ATOM     20  H10 <0> d          -0.644   2.600   3.908  0.00  0.00     0.159 HD
ATOM     21  H11 <0> d          -2.103   3.141   4.540  0.00  0.00     0.159 HD
ENDBRANCH   6  17
TORSDOF 1
