REMARK  2 active torsions:
REMARK  status: ('A' for Active; 'I' for Inactive)
REMARK    1  A    between atoms: C6_7  and  C7_10 
REMARK    2  A    between atoms: C7_10  and  O3_11 
ROOT
ATOM      1  C1  <0> d          -0.019   1.534   0.011  0.00  0.00    -0.056 C 
ATOM      2  C2  <0> d           1.519   1.479  -0.004  0.00  0.00    -0.013 C 
ATOM      3  C3  <0> d           1.393   0.092   0.640  0.00  0.00     0.164 C 
ATOM      4  C4  <0> d           0.002  -0.004   0.002  0.00  0.00    -0.013 C 
ATOM      5  O1  <0> d           2.337  -0.874   0.162  0.00  0.00    -0.352 OA
ATOM      6  C5  <0> d           3.288  -1.026   1.245  0.00  0.00     0.049 C 
ATOM      7  C6  <0> d           2.375  -0.885   2.489  0.00  0.00     0.083 C 
ATOM      8  H1  <0> d           1.893  -1.834   2.723  0.00  0.00     0.090 H 
ATOM      9  O2  <0> d           1.400   0.093   2.069  0.00  0.00    -0.346 OA
ATOM     10  H2  <0> d          -0.431   1.960   0.925  0.00  0.00     0.033 H 
ATOM     11  H3  <0> d          -0.449   1.970  -0.891  0.00  0.00     0.033 H 
ATOM     12  H4  <0> d           1.945   1.457  -1.007  0.00  0.00     0.041 H 
ATOM     13  H5  <0> d           1.989   2.220   0.641  0.00  0.00     0.041 H 
ATOM     14  H6  <0> d          -0.747  -0.455   0.653  0.00  0.00     0.041 H 
ATOM     15  H7  <0> d           0.009  -0.435  -0.999  0.00  0.00     0.041 H 
ATOM     16  H8  <0> d           3.758  -2.009   1.216  0.00  0.00     0.078 H 
ATOM     17  H9  <0> d           4.038  -0.236   1.219  0.00  0.00     0.078 H 
ENDROOT
BRANCH   7  18
ATOM     18  C7  <0> d           3.174  -0.376   3.690  0.00  0.00     0.043 C 
ATOM     19  H10 <0> d           4.027  -1.032   3.864  0.00  0.00     0.078 H 
ATOM     20  H11 <0> d           3.528   0.635   3.489  0.00  0.00     0.078 H 
BRANCH  18  21
ATOM     21  O3  <0> d           2.337  -0.365   4.849  0.00  0.00    -0.398 OA
ATOM     22  H12 <0> d           2.779  -0.053   5.650  0.00  0.00     0.209 HD
ENDBRANCH  18  21
ENDBRANCH   7  18
TORSDOF 2
