REMARK  6 active torsions:
REMARK  status: ('A' for Active; 'I' for Inactive)
REMARK    1  A    between atoms: C1_1  and  C2_2 
REMARK    2  A    between atoms: C2_2  and  C3_3 
REMARK    3  A    between atoms: C3_3  and  C5_7 
REMARK    4  A    between atoms: C5_7  and  O2_9 
REMARK    5  A    between atoms: O2_9  and  C6_10 
REMARK    6  A    between atoms: C6_10  and  C7_11 
ROOT
ATOM      1  C3  <0> d          -0.729   1.579   1.267  0.00  0.00     0.113 C 
ATOM      2  H1  <0> d          -0.822   2.665   1.230  0.00  0.00     0.078 H 
ATOM      3  C4  <0> d          -2.069   0.974   1.338  0.00  0.00     0.074 C 
ATOM      4  N1  <0> d          -3.103   0.506   1.394  0.00  0.00    -0.196 NA
ENDROOT
BRANCH   1   5
ATOM      5  C2  <0> d          -0.013   1.086   0.008  0.00  0.00    -0.045 C 
ATOM      6  H5  <0> d           0.002  -0.004   0.002  0.00  0.00     0.035 H 
ATOM      7  H6  <0> d           1.010   1.463   0.000  0.00  0.00     0.035 H 
BRANCH   5   8
ATOM      8  C1  <0> d          -0.753   1.593  -1.232  0.00  0.00    -0.075 C 
ATOM      9  H2  <0> d          -0.242   1.241  -2.128  0.00  0.00     0.027 H 
ATOM     10  H3  <0> d          -1.775   1.215  -1.224  0.00  0.00     0.027 H 
ATOM     11  H4  <0> d          -0.767   2.683  -1.226  0.00  0.00     0.027 H 
ENDBRANCH   5   8
ENDBRANCH   1   5
BRANCH   1  12
ATOM     12  C5  <0> d           0.067   1.185   2.485  0.00  0.00     0.276 C 
ATOM     13  O1  <0> d           1.100   0.572   2.358  0.00  0.00    -0.264 OA
BRANCH  12  14
ATOM     14  O2  <0> d          -0.373   1.514   3.709  0.00  0.00    -0.321 OA
BRANCH  14  15
ATOM     15  C6  <0> d           0.444   1.101   4.836  0.00  0.00     0.025 C 
ATOM     16  H7  <0> d           0.535   0.015   4.840  0.00  0.00     0.074 H 
ATOM     17  H8  <0> d           1.434   1.549   4.750  0.00  0.00     0.074 H 
BRANCH  15  18
ATOM     18  C7  <0> d          -0.213   1.563   6.139  0.00  0.00    -0.056 C 
ATOM     19  H9  <0> d          -0.305   2.649   6.135  0.00  0.00     0.030 H 
ATOM     20  H10 <0> d          -1.203   1.115   6.224  0.00  0.00     0.030 H 
ATOM     21  H11 <0> d           0.400   1.253   6.985  0.00  0.00     0.030 H 
ENDBRANCH  15  18
ENDBRANCH  14  15
ENDBRANCH  12  14
ENDBRANCH   1  12
TORSDOF 6
