REMARK  2 active torsions:
REMARK  status: ('A' for Active; 'I' for Inactive)
REMARK    1  A    between atoms: C1_1  and  C2_2 
REMARK    2  A    between atoms: C3_3  and  C5_6 
ROOT
ATOM      1  C5  <0> d          -1.228   1.758   0.017  0.00  0.00    -0.021 A 
ATOM      2  C6  <0> d          -0.013   1.076   0.008  0.00  0.00    -0.072 A 
ATOM      3  C7  <0> d           1.172   1.783   0.000  0.00  0.00    -0.082 A 
ATOM      4  C8  <0> d           1.155   3.167   0.007  0.00  0.00    -0.083 A 
ATOM      5  C9  <0> d          -0.048   3.848   0.021  0.00  0.00    -0.082 A 
ATOM      6  C10 <0> d          -1.240   3.151   0.029  0.00  0.00    -0.072 A 
ATOM      7  H4  <0> d           0.002  -0.004   0.002  0.00  0.00     0.084 H 
ATOM      8  H5  <0> d           2.115   1.256  -0.011  0.00  0.00     0.083 H 
ATOM      9  H6  <0> d           2.085   3.716   0.001  0.00  0.00     0.083 H 
ATOM     10  H7  <0> d          -0.056   4.928   0.026  0.00  0.00     0.083 H 
ATOM     11  H8  <0> d          -2.179   3.685   0.041  0.00  0.00     0.084 H 
ENDROOT
BRANCH   1  12
ATOM     12  C3  <0> d          -2.505   1.003   0.020  0.00  0.00     0.035 A 
ATOM     13  C2  <0> d          -3.871   0.996   0.026  0.00  0.00     0.004 A 
ATOM     14  C4  <0> d          -3.194  -0.234   0.011  0.00  0.00     0.190 A 
ATOM     15  O1  <0> d          -3.198  -1.456  -0.004  0.00  0.00    -0.287 OA
BRANCH  13  16
ATOM     16  C1  <0> d          -5.170   1.759   0.037  0.00  0.00    -0.046 C 
ATOM     17  H1  <0> d          -5.488   1.948  -0.989  0.00  0.00     0.033 H 
ATOM     18  H2  <0> d          -5.931   1.173   0.551  0.00  0.00     0.033 H 
ATOM     19  H3  <0> d          -5.030   2.708   0.555  0.00  0.00     0.033 H 
ENDBRANCH  13  16
ENDBRANCH   1  12
TORSDOF 2
