REMARK  4 active torsions:
REMARK  status: ('A' for Active; 'I' for Inactive)
REMARK    1  A    between atoms: C1_1  and  C2_2 
REMARK    2  A    between atoms: C2_2  and  C3_3 
REMARK    3  A    between atoms: C3_3  and  C4_4 
REMARK    4  A    between atoms: C7_9  and  C8_12 
ROOT
ATOM      1  C4  <0> d           2.094   1.558  -1.119  0.00  0.00     0.131 C 
ATOM      2  H1  <0> d           1.634   1.913  -2.041  0.00  0.00     0.129 H 
ATOM      3  O1  <0> d           1.328   2.011   0.000  0.00  0.00    -0.361 OA
ATOM      4  C5  <0> d          -0.019   1.528   0.010  0.00  0.00     0.025 C 
ATOM      5  C6  <0> d           0.002  -0.004   0.002  0.00  0.00    -0.021 C 
ATOM      6  C7  <0> d           0.839  -0.481  -1.190  0.00  0.00     0.040 C 
ATOM      7  H2  <0> d           0.347  -0.195  -2.119  0.00  0.00     0.083 H 
ATOM      8  O2  <0> d           2.132   0.129  -1.124  0.00  0.00    -0.356 OA
ATOM      9  H10 <0> d          -0.543   1.891  -0.874  0.00  0.00     0.074 H 
ATOM     10  H11 <0> d          -0.526   1.881   0.908  0.00  0.00     0.074 H 
ATOM     11  H12 <0> d           0.445  -0.368   0.929  0.00  0.00     0.040 H 
ATOM     12  H13 <0> d          -1.016  -0.383  -0.089  0.00  0.00     0.040 H 
ENDROOT
BRANCH   1  13
ATOM     13  C3  <0> d           3.519   2.106  -1.016  0.00  0.00    -0.019 C 
ATOM     14  H8  <0> d           3.948   1.825  -0.054  0.00  0.00     0.040 H 
ATOM     15  H9  <0> d           4.127   1.690  -1.820  0.00  0.00     0.040 H 
BRANCH  13  16
ATOM     16  C2  <0> d           3.490   3.631  -1.136  0.00  0.00    -0.064 C 
ATOM     17  H6  <0> d           3.062   3.911  -2.099  0.00  0.00     0.032 H 
ATOM     18  H7  <0> d           2.882   4.047  -0.333  0.00  0.00     0.032 H 
BRANCH  16  19
ATOM     19  C1  <0> d           4.915   4.178  -1.034  0.00  0.00    -0.076 C 
ATOM     20  H3  <0> d           5.344   3.897  -0.072  0.00  0.00     0.027 H 
ATOM     21  H4  <0> d           5.523   3.762  -1.837  0.00  0.00     0.027 H 
ATOM     22  H5  <0> d           4.894   5.264  -1.119  0.00  0.00     0.027 H 
ENDBRANCH  16  19
ENDBRANCH  13  16
ENDBRANCH   1  13
BRANCH   6  23
ATOM     23  C8  <0> d           0.988  -2.003  -1.135  0.00  0.00    -0.052 C 
ATOM     24  H14 <0> d           0.002  -2.466  -1.175  0.00  0.00     0.030 H 
ATOM     25  H15 <0> d           1.584  -2.341  -1.983  0.00  0.00     0.030 H 
ATOM     26  H16 <0> d           1.485  -2.286  -0.206  0.00  0.00     0.030 H 
ENDBRANCH   6  23
TORSDOF 4
