REMARK  1 active torsions:
REMARK  status: ('A' for Active; 'I' for Inactive)
REMARK    1  A    between atoms: C4_5  and  C8_11 
REMARK       I    between atoms: C8_11  and  N1_13 
ROOT
ATOM      1  C1  <0> d          -0.699   1.789  -1.220  0.00  0.00    -0.051 C 
ATOM      2  C2  <0> d          -0.013   1.086   0.008  0.00  0.00    -0.037 C 
ATOM      3  H1  <0> d           0.002  -0.004   0.002  0.00  0.00     0.046 H 
ATOM      4  C3  <0> d           1.378   1.797  -0.002  0.00  0.00    -0.047 C 
ATOM      5  C4  <0> d           1.045   3.248  -0.427  0.00  0.00     0.030 C 
ATOM      6  H2  <0> d           1.325   3.951   0.357  0.00  0.00     0.055 H 
ATOM      7  C5  <0> d          -0.505   3.229  -0.621  0.00  0.00    -0.026 C 
ATOM      8  H3  <0> d          -0.930   4.057  -1.189  0.00  0.00     0.047 H 
ATOM      9  C6  <0> d          -1.055   3.023   0.796  0.00  0.00    -0.101 C 
ATOM     10  C7  <0> d          -0.763   1.750   1.169  0.00  0.00    -0.102 C 
ATOM     11  H4  <0> d          -0.137   1.656  -2.145  0.00  0.00     0.035 H 
ATOM     12  H5  <0> d          -1.746   1.506  -1.331  0.00  0.00     0.035 H 
ATOM     13  H6  <0> d           1.823   1.782   0.994  0.00  0.00     0.035 H 
ATOM     14  H7  <0> d           2.044   1.326  -0.725  0.00  0.00     0.035 H 
ATOM     15  H8  <0> d          -1.584   3.760   1.382  0.00  0.00     0.077 H 
ATOM     16  H9  <0> d          -1.003   1.285   2.114  0.00  0.00     0.076 H 
ENDROOT
BRANCH   5  17
ATOM     17  C8  <0> d           1.736   3.592  -1.721  0.00  0.00     0.220 C 
ATOM     18  O1  <0> d           1.082   3.884  -2.699  0.00  0.00    -0.273 OA
ATOM     19  N1  <0> d           3.082   3.576  -1.791  0.00  0.00    -0.370 N 
ATOM     20  H10 <0> d           3.606   3.343  -1.008  0.00  0.00     0.159 HD
ATOM     21  H11 <0> d           3.527   3.798  -2.623  0.00  0.00     0.159 HD
ENDBRANCH   5  17
TORSDOF 1
