REMARK  2 active torsions:
REMARK  status: ('A' for Active; 'I' for Inactive)
REMARK    1  A    between atoms: C1_1  and  O1_2 
REMARK    2  A    between atoms: O1_2  and  C2_3 
ROOT
ATOM      1  C2  <0> d           0.626  -0.618   1.041  0.00  0.00     0.148 A 
ATOM      2  C3  <0> d           1.985  -0.919   0.982  0.00  0.00     0.170 A 
ATOM      3  C4  <0> d           2.582  -1.544   2.060  0.00  0.00     0.042 A 
ATOM      4  N1  <0> d           1.882  -1.856   3.134  0.00  0.00    -0.267 NA
ATOM      5  C5  <0> d           0.593  -1.588   3.228  0.00  0.00     0.042 A 
ATOM      6  C6  <0> d          -0.076  -0.959   2.196  0.00  0.00     0.170 A 
ATOM      7  F1  <0> d          -1.395  -0.682   2.302  0.00  0.00    -0.202 F 
ATOM      8  F2  <0> d           2.709  -0.604  -0.114  0.00  0.00    -0.202 F 
ATOM      9  H4  <0> d           3.635  -1.781   2.023  0.00  0.00     0.119 H 
ATOM     10  H5  <0> d           0.056  -1.860   4.125  0.00  0.00     0.119 H 
ENDROOT
BRANCH   1  11
ATOM     11  O1  <0> d           0.002  -0.004   0.002  0.00  0.00    -0.350 OA
BRANCH  11  12
ATOM     12  C1  <0> d          -0.017   1.425   0.010  0.00  0.00     0.011 C 
ATOM     13  H1  <0> d           1.005   1.802   0.002  0.00  0.00     0.067 H 
ATOM     14  H2  <0> d          -0.544   1.786  -0.873  0.00  0.00     0.067 H 
ATOM     15  H3  <0> d          -0.527   1.776   0.907  0.00  0.00     0.067 H 
ENDBRANCH  11  12
ENDBRANCH   1  11
TORSDOF 2
