REMARK  0 active torsions:
REMARK  status: ('A' for Active; 'I' for Inactive)
ROOT
ATOM      1  C1  <0> d          -0.017   1.373   0.010  0.00  0.00    -0.082 A 
ATOM      2  C2  <0> d           1.174   2.083   0.002  0.00  0.00    -0.080 A 
ATOM      3  C3  <0> d           2.385   1.426  -0.013  0.00  0.00    -0.050 A 
ATOM      4  C4  <0> d           2.430   0.033  -0.021  0.00  0.00     0.083 A 
ATOM      5  C5  <0> d           1.225  -0.683  -0.013  0.00  0.00     0.045 A 
ATOM      6  C6  <0> d           0.002  -0.004   0.002  0.00  0.00    -0.067 A 
ATOM      7  C7  <0> d           1.550  -2.119  -0.024  0.00  0.00     0.186 A 
ATOM      8  O1  <0> d           0.778  -3.055  -0.022  0.00  0.00    -0.290 OA
ATOM      9  C8  <0> d           3.063  -2.165  -0.039  0.00  0.00     0.085 A 
ATOM     10  O2  <0> d           3.494  -0.803  -0.036  0.00  0.00    -0.343 OA
ATOM     11  H1  <0> d          -0.959   1.900   0.026  0.00  0.00     0.083 H 
ATOM     12  H2  <0> d           1.152   3.163   0.008  0.00  0.00     0.083 H 
ATOM     13  H3  <0> d           3.304   1.993  -0.019  0.00  0.00     0.087 H 
ATOM     14  H4  <0> d          -0.925  -0.558   0.008  0.00  0.00     0.085 H 
ATOM     15  H5  <0> d           3.432  -2.678   0.848  0.00  0.00     0.087 H 
ATOM     16  H6  <0> d           3.415  -2.668  -0.940  0.00  0.00     0.087 H 
ENDROOT
TORSDOF 0
