REMARK  2 active torsions:
REMARK  status: ('A' for Active; 'I' for Inactive)
REMARK    1  A    between atoms: C1_1  and  C2_2 
REMARK    2  A    between atoms: C5_5  and  N1_9 
ROOT
ATOM      1  C2  <0> d          -3.645   3.002   0.036  0.00  0.00    -0.023 A 
ATOM      2  C3  <0> d          -2.457   3.709   0.033  0.00  0.00    -0.072 A 
ATOM      3  C4  <0> d          -1.250   3.037   0.030  0.00  0.00    -0.057 A 
ATOM      4  C5  <0> d          -1.230   1.648   0.017  0.00  0.00     0.028 A 
ATOM      5  C6  <0> d          -2.424   0.938   0.019  0.00  0.00    -0.020 A 
ATOM      6  C7  <0> d          -3.629   1.617   0.028  0.00  0.00     0.124 A 
ATOM      7  F1  <0> d          -4.792   0.929   0.029  0.00  0.00    -0.205 F 
ATOM      8  H4  <0> d          -2.472   4.789   0.039  0.00  0.00     0.084 H 
ATOM      9  H5  <0> d          -0.323   3.591   0.034  0.00  0.00     0.086 H 
ATOM     10  H6  <0> d          -2.411  -0.141   0.013  0.00  0.00     0.091 H 
ENDROOT
BRANCH   1  11
ATOM     11  C1  <0> d          -4.959   3.739   0.046  0.00  0.00    -0.048 C 
ATOM     12  H1  <0> d          -5.271   3.912   1.076  0.00  0.00     0.033 H 
ATOM     13  H2  <0> d          -4.843   4.696  -0.464  0.00  0.00     0.033 H 
ATOM     14  H3  <0> d          -5.714   3.144  -0.468  0.00  0.00     0.033 H 
ENDBRANCH   1  11
BRANCH   4  15
ATOM     15  N1  <0> d          -0.011   0.966   0.007  0.00  0.00    -0.399 N 
ATOM     16  H7  <0> d           0.002  -0.004   0.002  0.00  0.00     0.156 HD
ATOM     17  H8  <0> d           0.822   1.462   0.002  0.00  0.00     0.156 HD
ENDBRANCH   4  15
TORSDOF 2
