REMARK  2 active torsions:
REMARK  status: ('A' for Active; 'I' for Inactive)
REMARK    1  A    between atoms: C1_1  and  S1_2 
REMARK    2  A    between atoms: S1_2  and  C2_3 
ROOT
ATOM      1  C2  <0> d          -0.016   1.325   0.009  0.00  0.00     0.117 A 
ATOM      2  C3  <0> d           1.217   2.021   0.001  0.00  0.00     0.056 A 
ATOM      3  N1  <0> d           2.334   1.346  -0.013  0.00  0.00    -0.180 NA
ATOM      4  N2  <0> d           2.328   0.060  -0.020  0.00  0.00    -0.227 N 
ATOM      5  H1  <0> d           3.172  -0.418  -0.030  0.00  0.00     0.194 HD
ATOM      6  C4  <0> d           1.178  -0.637  -0.013  0.00  0.00     0.363 A 
ATOM      7  O1  <0> d           1.209  -1.857  -0.019  0.00  0.00    -0.243 OA
ATOM      8  N3  <0> d           0.002  -0.004   0.002  0.00  0.00    -0.184 NA
ATOM      9  H5  <0> d           1.234   3.101   0.007  0.00  0.00     0.121 H 
ENDROOT
BRANCH   1  10
ATOM     10  S1  <0> d          -1.543   2.203   0.021  0.00  0.00    -0.113 SA
BRANCH  10  11
ATOM     11  C1  <0> d          -2.704   0.815   0.019  0.00  0.00    -0.029 C 
ATOM     12  H2  <0> d          -3.726   1.195   0.026  0.00  0.00     0.042 H 
ATOM     13  H3  <0> d          -2.547   0.211  -0.875  0.00  0.00     0.042 H 
ATOM     14  H4  <0> d          -2.539   0.202   0.905  0.00  0.00     0.042 H 
ENDBRANCH  10  11
ENDBRANCH   1  10
TORSDOF 2
