REMARK  4 active torsions:
REMARK  status: ('A' for Active; 'I' for Inactive)
REMARK    1  A    between atoms: C1_1  and  C2_2 
REMARK    2  A    between atoms: C2_2  and  O1_3 
REMARK    3  A    between atoms: O1_3  and  C3_4 
REMARK    4  A    between atoms: C3_4  and  C4_6 
ROOT
ATOM      1  C3  <0> d           0.776  -1.799  -1.335  0.00  0.00     0.311 C 
ATOM      2  O2  <0> d           0.312  -2.551  -0.500  0.00  0.00    -0.258 OA
ENDROOT
BRANCH   1   3
ATOM      3  O1  <0> d           0.671  -0.465  -1.174  0.00  0.00    -0.317 OA
BRANCH   3   4
ATOM      4  C2  <0> d           0.002  -0.004   0.002  0.00  0.00     0.026 C 
ATOM      5  H5  <0> d           0.529  -0.365   0.885  0.00  0.00     0.074 H 
ATOM      6  H6  <0> d          -1.020  -0.381   0.010  0.00  0.00     0.074 H 
BRANCH   4   7
ATOM      7  C1  <0> d          -0.019   1.526   0.010  0.00  0.00    -0.056 C 
ATOM      8  H2  <0> d           1.004   1.903   0.003  0.00  0.00     0.030 H 
ATOM      9  H3  <0> d          -0.546   1.887  -0.873  0.00  0.00     0.030 H 
ATOM     10  H4  <0> d          -0.529   1.877   0.907  0.00  0.00     0.030 H 
ENDBRANCH   4   7
ENDBRANCH   3   4
ENDBRANCH   1   3
BRANCH   1  11
ATOM     11  C4  <0> d           1.451  -2.346  -2.521  0.00  0.00     0.126 A 
ATOM     12  N2  <0> d           2.020  -1.636  -3.541  0.00  0.00    -0.273 N 
ATOM     13  N1  <0> d           2.519  -2.446  -4.404  0.00  0.00    -0.187 NA
ATOM     14  H1  <0> d           2.044  -0.668  -3.603  0.00  0.00     0.189 HD
ATOM     15  C6  <0> d           2.323  -3.689  -4.046  0.00  0.00     0.024 A 
ATOM     16  C5  <0> d           1.634  -3.683  -2.831  0.00  0.00    -0.031 A 
ATOM     17  H8  <0> d           2.638  -4.566  -4.593  0.00  0.00     0.117 H 
ATOM     18  H7  <0> d           1.313  -4.538  -2.256  0.00  0.00     0.089 H 
ENDBRANCH   1  11
TORSDOF 4
