REMARK  3 active torsions:
REMARK  status: ('A' for Active; 'I' for Inactive)
REMARK    1  A    between atoms: C2_2  and  C3_3 
REMARK    2  A    between atoms: C3_3  and  O1_4 
REMARK    3  A    between atoms: O1_4  and  C4_5 
ROOT
ATOM      1  C4  <0> d           1.176   2.086   0.002  0.00  0.00     0.069 A 
ATOM      2  C5  <0> d          -0.017   1.373   0.010  0.00  0.00    -0.049 A 
ATOM      3  C6  <0> d           0.002  -0.004   0.002  0.00  0.00    -0.060 A 
ATOM      4  C7  <0> d           1.223  -0.684  -0.013  0.00  0.00     0.044 A 
ATOM      5  C8  <0> d           2.420   0.037  -0.021  0.00  0.00    -0.060 A 
ATOM      6  C9  <0> d           2.392   1.414  -0.013  0.00  0.00    -0.049 A 
ATOM      7  C10 <0> d           1.247  -2.116  -0.021  0.00  0.00     0.099 C 
ATOM      8  N1  <0> d           1.266  -3.252  -0.027  0.00  0.00    -0.191 NA
ATOM      9  H6  <0> d          -0.960   1.900   0.017  0.00  0.00     0.087 H 
ATOM     10  H7  <0> d          -0.925  -0.557   0.007  0.00  0.00     0.086 H 
ATOM     11  H8  <0> d           3.365  -0.485  -0.032  0.00  0.00     0.086 H 
ATOM     12  H9  <0> d           3.317   1.972  -0.019  0.00  0.00     0.087 H 
ENDROOT
BRANCH   1  13
ATOM     13  O1  <0> d           1.153   3.444   0.009  0.00  0.00    -0.348 OA
BRANCH  13  14
ATOM     14  C3  <0> d           2.415   4.114   0.001  0.00  0.00     0.040 C 
ATOM     15  H4  <0> d           2.986   3.826   0.884  0.00  0.00     0.081 H 
ATOM     16  H5  <0> d           2.969   3.835  -0.896  0.00  0.00     0.081 H 
BRANCH  14  17
ATOM     17  C2  <0> d           2.193   5.604   0.011  0.00  0.00    -0.089 C 
ATOM     18  C1  <0> d           2.897   6.366   0.811  0.00  0.00    -0.123 C 
ATOM     19  H1  <0> d           2.737   7.434   0.818  0.00  0.00     0.066 H 
ATOM     20  H2  <0> d           3.637   5.926   1.463  0.00  0.00     0.066 H 
ATOM     21  H3  <0> d           1.452   6.044  -0.641  0.00  0.00     0.078 H 
ENDBRANCH  14  17
ENDBRANCH  13  14
ENDBRANCH   1  13
TORSDOF 3
