REMARK  2 active torsions:
REMARK  status: ('A' for Active; 'I' for Inactive)
REMARK    1  A    between atoms: C2_2  and  O3_9 
REMARK    2  A    between atoms: C3_4  and  O2_8 
ROOT
ATOM      1  C1  <0> d           2.300   3.492  -1.027  0.00  0.00     0.046 C 
ATOM      2  C2  <0> d           1.170   3.105  -0.039  0.00  0.00     0.082 C 
ATOM      3  H1  <0> d           0.197   3.413  -0.421  0.00  0.00     0.090 H 
ATOM      4  C3  <0> d           1.286   1.562  -0.002  0.00  0.00     0.082 C 
ATOM      5  H2  <0> d           1.859   1.243   0.869  0.00  0.00     0.090 H 
ATOM      6  C4  <0> d           2.036   1.205  -1.300  0.00  0.00     0.046 C 
ATOM      7  O1  <0> d           2.262   2.437  -2.012  0.00  0.00    -0.386 OA
ATOM      8  H3  <0> d           2.092   4.456  -1.490  0.00  0.00     0.078 H 
ATOM      9  H4  <0> d           3.265   3.509  -0.520  0.00  0.00     0.078 H 
ATOM     10  H5  <0> d           2.989   0.733  -1.060  0.00  0.00     0.078 H 
ATOM     11  H6  <0> d           1.429   0.532  -1.905  0.00  0.00     0.078 H 
ENDROOT
BRANCH   2  12
ATOM     12  O3  <0> d           1.409   3.666   1.254  0.00  0.00    -0.391 OA
ATOM     13  H8  <0> d           1.347   4.630   1.281  0.00  0.00     0.210 HD
ENDBRANCH   2  12
BRANCH   4  14
ATOM     14  O2  <0> d          -0.011   0.963   0.007  0.00  0.00    -0.391 OA
ATOM     15  H7  <0> d           0.002  -0.004   0.002  0.00  0.00     0.210 HD
ENDBRANCH   4  14
TORSDOF 2
