REMARK  4 active torsions:
REMARK  status: ('A' for Active; 'I' for Inactive)
REMARK    1  A    between atoms: C1_1  and  C2_2 
REMARK    2  A    between atoms: C5_5  and  C9_10 
REMARK    3  A    between atoms: C6_7  and  C7_8 
REMARK    4  A    between atoms: C6_7  and  C8_9 
ROOT
ATOM      1  C9  <0> d          -0.985   0.834   3.677  0.00  0.00     0.019 C 
ATOM      2  C10 <0> d          -0.272   0.247   4.824  0.00  0.00     0.059 C 
ATOM      3  N1  <0> d           0.278  -0.207   5.708  0.00  0.00    -0.197 NA
ATOM      4  H14 <0> d          -1.436   1.780   3.976  0.00  0.00     0.055 H 
ATOM      5  H15 <0> d          -1.764   0.149   3.344  0.00  0.00     0.055 H 
ENDROOT
BRANCH   1   6
ATOM      6  C5  <0> d           0.003   1.078   2.534  0.00  0.00    -0.029 C 
ATOM      7  C4  <0> d           0.928   2.277   2.846  0.00  0.00    -0.044 C 
ATOM      8  C3  <0> d           0.243   3.467   2.216  0.00  0.00    -0.100 C 
ATOM      9  H6  <0> d           1.018   2.417   3.924  0.00  0.00     0.039 H 
ATOM     10  H7  <0> d           1.911   2.124   2.400  0.00  0.00     0.039 H 
ATOM     11  C2  <0> d          -0.661   3.086   1.355  0.00  0.00    -0.079 C 
ATOM     12  H5  <0> d           0.471   4.497   2.448  0.00  0.00     0.077 H 
ATOM     13  C6  <0> d          -0.729   1.579   1.267  0.00  0.00    -0.020 C 
ATOM     14  H1  <0> d           0.583   0.180   2.322  0.00  0.00     0.043 H 
BRANCH  11  15
ATOM     15  C1  <0> d          -1.523   4.027   0.552  0.00  0.00    -0.054 C 
ATOM     16  H2  <0> d          -2.438   4.242   1.105  0.00  0.00     0.033 H 
ATOM     17  H3  <0> d          -0.980   4.954   0.374  0.00  0.00     0.033 H 
ATOM     18  H4  <0> d          -1.776   3.564  -0.402  0.00  0.00     0.033 H 
ENDBRANCH  11  15
BRANCH  13  19
ATOM     19  C7  <0> d          -0.013   1.086   0.008  0.00  0.00    -0.065 C 
ATOM     20  H8  <0> d           0.002  -0.004   0.002  0.00  0.00     0.028 H 
ATOM     21  H9  <0> d           1.010   1.463   0.000  0.00  0.00     0.028 H 
ATOM     22  H10 <0> d          -0.540   1.447  -0.875  0.00  0.00     0.028 H 
ENDBRANCH  13  19
BRANCH  13  23
ATOM     23  C8  <0> d          -2.184   1.108   1.270  0.00  0.00    -0.065 C 
ATOM     24  H11 <0> d          -2.213   0.018   1.261  0.00  0.00     0.028 H 
ATOM     25  H12 <0> d          -2.684   1.477   2.166  0.00  0.00     0.028 H 
ATOM     26  H13 <0> d          -2.693   1.492   0.386  0.00  0.00     0.028 H 
ENDBRANCH  13  23
ENDBRANCH   1   6
TORSDOF 4
