REMARK  4 active torsions:
REMARK  status: ('A' for Active; 'I' for Inactive)
REMARK    1  A    between atoms: C1_1  and  C2_2 
REMARK    2  A    between atoms: C2_2  and  N1_3 
REMARK    3  A    between atoms: C3_4  and  N5_9 
REMARK    4  A    between atoms: C4_6  and  N4_8 
ROOT
ATOM      1  N1  <0> d           0.688  -0.476  -1.203  0.00  0.00    -0.084 N 
ATOM      2  C3  <0> d           0.126  -0.742  -2.401  0.00  0.00     0.732 A 
ATOM      3  N2  <0> d           1.078  -1.141  -3.217  0.00  0.00     0.130 NA
ATOM      4  C4  <0> d           2.251  -1.142  -2.574  0.00  0.00     0.753 A 
ATOM      5  N3  <0> d           2.061  -0.737  -1.342  0.00  0.00     0.036 NA
ENDROOT
BRANCH   1   6
ATOM      6  C2  <0> d           0.002  -0.004   0.002  0.00  0.00     0.032 C 
ATOM      7  H4  <0> d           0.529  -0.365   0.885  0.00  0.00     0.067 H 
ATOM      8  H5  <0> d          -1.020  -0.381   0.010  0.00  0.00     0.067 H 
BRANCH   6   9
ATOM      9  C1  <0> d          -0.019   1.526   0.010  0.00  0.00    -0.059 C 
ATOM     10  H1  <0> d           1.004   1.903   0.003  0.00  0.00     0.029 H 
ATOM     11  H2  <0> d          -0.546   1.887  -0.873  0.00  0.00     0.029 H 
ATOM     12  H3  <0> d          -0.529   1.877   0.907  0.00  0.00     0.029 H 
ENDBRANCH   6   9
ENDBRANCH   1   6
BRANCH   2  13
ATOM     13  N5  <0> d          -1.215  -0.616  -2.715  0.00  0.00    -0.231 N 
ATOM     14  H8  <0> d          -1.845  -0.313  -2.042  0.00  0.00     0.174 HD
ATOM     15  H9  <0> d          -1.526  -0.832  -3.608  0.00  0.00     0.174 HD
ENDBRANCH   2  13
BRANCH   4  16
ATOM     16  N4  <0> d           3.478  -1.508  -3.127  0.00  0.00    -0.229 N 
ATOM     17  H6  <0> d           3.528  -1.792  -4.053  0.00  0.00     0.174 HD
ATOM     18  H7  <0> d           4.282  -1.478  -2.586  0.00  0.00     0.174 HD
ENDBRANCH   4  16
TORSDOF 4
