REMARK  1 active torsions:
REMARK  status: ('A' for Active; 'I' for Inactive)
REMARK    1  A    between atoms: C4_6  and  O2_8 
ROOT
ATOM      1  C1  <0> d           0.703   3.214  -0.423  0.00  0.00    -0.018 C 
ATOM      2  C2  <0> d           1.189   1.810   0.000  0.00  0.00    -0.002 C 
ATOM      3  N1  <0> d          -0.011   0.966   0.007  0.00  0.00    -0.359 N 
ATOM      4  C3  <0> d          -1.131   1.709   0.016  0.00  0.00     0.246 C 
ATOM      5  O1  <0> d          -2.260   1.265   0.025  0.00  0.00    -0.271 OA
ATOM      6  C4  <0> d          -0.779   3.180   0.017  0.00  0.00     0.113 C 
ATOM      7  H1  <0> d          -0.997   3.686   0.969  0.00  0.00     0.098 H 
ATOM      8  H2  <0> d           0.760   3.383  -1.509  0.00  0.00     0.040 H 
ATOM      9  H3  <0> d           1.223   4.029   0.102  0.00  0.00     0.040 H 
ATOM     10  H4  <0> d           1.933   1.446  -0.724  0.00  0.00     0.064 H 
ATOM     11  H5  <0> d           1.647   1.867   0.999  0.00  0.00     0.064 H 
ATOM     12  H6  <0> d           0.087  -0.130   0.005  0.00  0.00     0.162 HD
ENDROOT
BRANCH   6  13
ATOM     13  O2  <0> d          -1.595   3.886  -0.921  0.00  0.00    -0.386 OA
ATOM     14  H7  <0> d          -2.680   3.960  -0.759  0.00  0.00     0.210 HD
ENDBRANCH   6  13
TORSDOF 1
