REMARK  4 active torsions:
REMARK  status: ('A' for Active; 'I' for Inactive)
REMARK    1  A    between atoms: C1_1  and  C2_2 
REMARK    2  A    between atoms: C2_2  and  C3_3 
REMARK    3  A    between atoms: C3_3  and  C4_4 
REMARK    4  A    between atoms: C4_4  and  C5_5 
ROOT
ATOM      1  C3  <0> d          -1.621  -1.212  -1.431  0.00  0.00    -0.059 C 
ATOM      2  H6  <0> d          -1.873  -0.281  -1.938  0.00  0.00     0.033 H 
ATOM      3  H7  <0> d          -0.800  -1.701  -1.955  0.00  0.00     0.033 H 
ENDROOT
BRANCH   1   4
ATOM      4  C2  <0> d          -2.842  -2.135  -1.424  0.00  0.00    -0.068 C 
ATOM      5  H4  <0> d          -2.591  -3.066  -0.917  0.00  0.00     0.032 H 
ATOM      6  H5  <0> d          -3.663  -1.646  -0.900  0.00  0.00     0.032 H 
BRANCH   4   7
ATOM      7  C1  <0> d          -3.263  -2.435  -2.864  0.00  0.00    -0.077 C 
ATOM      8  H1  <0> d          -4.133  -3.091  -2.859  0.00  0.00     0.027 H 
ATOM      9  H2  <0> d          -3.514  -1.503  -3.371  0.00  0.00     0.027 H 
ATOM     10  H3  <0> d          -2.442  -2.923  -3.388  0.00  0.00     0.027 H 
ENDBRANCH   4   7
ENDBRANCH   1   4
BRANCH   1  11
ATOM     11  C4  <0> d          -1.200  -0.912   0.009  0.00  0.00    -0.002 C 
ATOM     12  H8  <0> d          -0.949  -1.844   0.516  0.00  0.00     0.045 H 
ATOM     13  H9  <0> d          -2.022  -0.424   0.533  0.00  0.00     0.045 H 
BRANCH  11  14
ATOM     14  C5  <0> d           0.002  -0.004   0.002  0.00  0.00     0.168 A 
ATOM     15  O1  <0> d           1.289  -0.389  -0.012  0.00  0.00    -0.286 OA
ATOM     16  C6  <0> d           2.022   0.737  -0.013  0.00  0.00     0.126 A 
ATOM     17  N2  <0> d           1.192   1.742   0.000  0.00  0.00    -0.136 NA
ATOM     18  H10 <0> d           3.100   0.799  -0.024  0.00  0.00     0.158 H 
ATOM     19  N1  <0> d          -0.016   1.298   0.009  0.00  0.00    -0.128 NA
ENDBRANCH  11  14
ENDBRANCH   1  11
TORSDOF 4
