REMARK  5 active torsions:
REMARK  status: ('A' for Active; 'I' for Inactive)
REMARK    1  A    between atoms: C1_1  and  C2_2 
REMARK    2  A    between atoms: C2_2  and  O1_3 
REMARK    3  A    between atoms: O1_3  and  C3_4 
REMARK    4  A    between atoms: C6_7  and  C9_10 
REMARK    5  A    between atoms: C9_10  and  O2_11 
ROOT
ATOM      1  C3  <0> d          -2.013   2.464   3.524  0.00  0.00     0.068 A 
ATOM      2  C4  <0> d          -2.368   1.250   2.954  0.00  0.00    -0.050 A 
ATOM      3  C5  <0> d          -1.720   0.807   1.817  0.00  0.00    -0.072 A 
ATOM      4  C6  <0> d          -0.718   1.572   1.248  0.00  0.00    -0.035 A 
ATOM      5  C7  <0> d          -0.359   2.779   1.818  0.00  0.00    -0.072 A 
ATOM      6  C8  <0> d          -1.008   3.230   2.951  0.00  0.00    -0.050 A 
ATOM      7  H6  <0> d          -3.150   0.652   3.398  0.00  0.00     0.087 H 
ATOM      8  H7  <0> d          -1.995  -0.138   1.372  0.00  0.00     0.084 H 
ATOM      9  H8  <0> d           0.427   3.373   1.374  0.00  0.00     0.084 H 
ATOM     10  H9  <0> d          -0.730   4.175   3.393  0.00  0.00     0.087 H 
ENDROOT
BRANCH   1  11
ATOM     11  O1  <0> d          -2.649   2.902   4.642  0.00  0.00    -0.352 OA
BRANCH  11  12
ATOM     12  C2  <0> d          -2.232   4.161   5.174  0.00  0.00     0.023 C 
ATOM     13  H4  <0> d          -1.176   4.112   5.439  0.00  0.00     0.074 H 
ATOM     14  H5  <0> d          -2.383   4.940   4.427  0.00  0.00     0.074 H 
BRANCH  12  15
ATOM     15  C1  <0> d          -3.056   4.485   6.422  0.00  0.00    -0.056 C 
ATOM     16  H1  <0> d          -2.738   5.446   6.828  0.00  0.00     0.030 H 
ATOM     17  H2  <0> d          -4.112   4.535   6.157  0.00  0.00     0.030 H 
ATOM     18  H3  <0> d          -2.905   3.707   7.170  0.00  0.00     0.030 H 
ENDBRANCH  12  15
ENDBRANCH  11  12
ENDBRANCH   1  11
BRANCH   4  19
ATOM     19  C9  <0> d          -0.013   1.086   0.008  0.00  0.00     0.040 C 
ATOM     20  H10 <0> d           0.002  -0.004   0.002  0.00  0.00     0.081 H 
ATOM     21  H11 <0> d           1.010   1.463   0.000  0.00  0.00     0.081 H 
BRANCH  19  22
ATOM     22  O2  <0> d          -0.704   1.559  -1.150  0.00  0.00    -0.396 OA
ATOM     23  H12 <0> d          -0.304   1.284  -1.986  0.00  0.00     0.209 HD
ENDBRANCH  19  22
ENDBRANCH   4  19
TORSDOF 5
