REMARK  1 active torsions:
REMARK  status: ('A' for Active; 'I' for Inactive)
REMARK    1  A    between atoms: C8_9  and  N2_11 
ROOT
ATOM      1  C1  <0> d          -0.017   1.387   0.010  0.00  0.00    -0.080 A 
ATOM      2  C2  <0> d           1.139   2.109   0.003  0.00  0.00    -0.071 A 
ATOM      3  C3  <0> d           2.376   1.445  -0.013  0.00  0.00    -0.006 A 
ATOM      4  C4  <0> d           3.595   2.143  -0.020  0.00  0.00     0.013 A 
ATOM      5  N1  <0> d           4.728   1.481  -0.034  0.00  0.00    -0.272 NA
ATOM      6  C5  <0> d           4.784   0.157  -0.042  0.00  0.00     0.003 A 
ATOM      7  C6  <0> d           3.659  -0.611  -0.036  0.00  0.00    -0.053 A 
ATOM      8  C7  <0> d           2.407   0.027  -0.021  0.00  0.00     0.003 A 
ATOM      9  C8  <0> d           1.197  -0.694  -0.013  0.00  0.00     0.037 A 
ATOM     10  C9  <0> d           0.002  -0.004   0.002  0.00  0.00    -0.057 A 
ATOM     11  H1  <0> d          -0.965   1.905   0.026  0.00  0.00     0.083 H 
ATOM     12  H2  <0> d           1.104   3.188   0.008  0.00  0.00     0.084 H 
ATOM     13  H3  <0> d           3.599   3.223  -0.015  0.00  0.00     0.116 H 
ATOM     14  H4  <0> d           5.750  -0.328  -0.054  0.00  0.00     0.114 H 
ATOM     15  H5  <0> d           3.727  -1.689  -0.043  0.00  0.00     0.087 H 
ATOM     16  H6  <0> d          -0.929  -0.550   0.008  0.00  0.00     0.086 H 
ENDROOT
BRANCH   9  17
ATOM     17  N2  <0> d           1.206  -2.087  -0.021  0.00  0.00    -0.398 N 
ATOM     18  H7  <0> d           2.050  -2.567  -0.032  0.00  0.00     0.156 HD
ATOM     19  H8  <0> d           0.370  -2.578  -0.016  0.00  0.00     0.156 HD
ENDBRANCH   9  17
TORSDOF 1
