REMARK  1 active torsions:
REMARK  status: ('A' for Active; 'I' for Inactive)
REMARK    1  A    between atoms: C6_9  and  N3_11 
ROOT
ATOM      1  C1  <0> d          -0.017   1.385   0.010  0.00  0.00    -0.080 A 
ATOM      2  C2  <0> d           1.146   2.098   0.002  0.00  0.00    -0.069 A 
ATOM      3  C3  <0> d           2.378   1.429  -0.013  0.00  0.00     0.013 A 
ATOM      4  C4  <0> d           3.725   1.867  -0.024  0.00  0.00     0.034 A 
ATOM      5  N1  <0> d           4.502   0.823  -0.037  0.00  0.00    -0.186 NA
ATOM      6  N2  <0> d           3.727  -0.344  -0.036  0.00  0.00    -0.276 N 
ATOM      7  H1  <0> d           4.066  -1.253  -0.043  0.00  0.00     0.189 HD
ATOM      8  C5  <0> d           2.405   0.024  -0.021  0.00  0.00     0.088 A 
ATOM      9  C6  <0> d           1.203  -0.690  -0.013  0.00  0.00     0.055 A 
ATOM     10  C7  <0> d           0.002  -0.004   0.002  0.00  0.00    -0.055 A 
ATOM     11  H2  <0> d          -0.963   1.906   0.026  0.00  0.00     0.083 H 
ATOM     12  H3  <0> d           1.117   3.178   0.008  0.00  0.00     0.085 H 
ATOM     13  H4  <0> d           4.053   2.896  -0.022  0.00  0.00     0.118 H 
ATOM     14  H5  <0> d          -0.928  -0.553   0.008  0.00  0.00     0.087 H 
ENDROOT
BRANCH   9  15
ATOM     15  N3  <0> d           1.214  -2.087  -0.021  0.00  0.00    -0.397 N 
ATOM     16  H6  <0> d           2.058  -2.565  -0.031  0.00  0.00     0.156 HD
ATOM     17  H7  <0> d           0.378  -2.579  -0.016  0.00  0.00     0.156 HD
ENDBRANCH   9  15
TORSDOF 1
