REMARK  2 active torsions:
REMARK  status: ('A' for Active; 'I' for Inactive)
REMARK    1  A    between atoms: C1_1  and  C2_2 
REMARK    2  A    between atoms: C4_4  and  N3_8 
ROOT
ATOM      1  C2  <0> d           0.002  -0.004   0.002  0.00  0.00     0.054 A 
ATOM      2  C3  <0> d           0.008  -0.816  -1.135  0.00  0.00    -0.014 A 
ATOM      3  C4  <0> d           0.028  -2.112  -0.722  0.00  0.00     0.132 A 
ATOM      4  N1  <0> d           0.035  -2.110   0.630  0.00  0.00    -0.262 N 
ATOM      5  H1  <0> d           0.049  -2.893   1.202  0.00  0.00     0.191 HD
ATOM      6  N2  <0> d           0.023  -0.776   1.058  0.00  0.00    -0.178 NA
ATOM      7  H5  <0> d          -0.002  -0.475  -2.160  0.00  0.00     0.092 H 
ENDROOT
BRANCH   3   8
ATOM      8  N3  <0> d           0.040  -3.242  -1.546  0.00  0.00    -0.281 N 
ATOM      9  C6  <0> d           0.060  -4.547  -1.153  0.00  0.00     0.094 A 
ATOM     10  N5  <0> d           0.062  -5.276  -2.235  0.00  0.00    -0.144 NA
ATOM     11  H7  <0> d           0.071  -4.909  -0.135  0.00  0.00     0.147 H 
ATOM     12  N4  <0> d           0.053  -4.519  -3.273  0.00  0.00    -0.144 NA
ATOM     13  C5  <0> d           0.039  -3.265  -2.909  0.00  0.00     0.094 A 
ATOM     14  H6  <0> d           0.028  -2.408  -3.565  0.00  0.00     0.147 H 
ENDBRANCH   3   8
BRANCH   1  15
ATOM     15  C1  <0> d          -0.018   1.503   0.010  0.00  0.00    -0.034 C 
ATOM     16  H2  <0> d           1.004   1.880   0.003  0.00  0.00     0.035 H 
ATOM     17  H3  <0> d          -0.545   1.864  -0.873  0.00  0.00     0.035 H 
ATOM     18  H4  <0> d          -0.529   1.854   0.907  0.00  0.00     0.035 H 
ENDBRANCH   1  15
TORSDOF 2
