REMARK  5 active torsions:
REMARK  status: ('A' for Active; 'I' for Inactive)
REMARK    1  A    between atoms: C1_1  and  C2_2 
REMARK    2  A    between atoms: C2_2  and  C3_3 
REMARK    3  A    between atoms: C3_3  and  C4_4 
REMARK    4  A    between atoms: C4_4  and  C5_5 
REMARK    5  A    between atoms: C6_8  and  N3_10 
ROOT
ATOM      1  C4  <0> d           1.766   3.161   0.001  0.00  0.00    -0.002 C 
ATOM      2  H8  <0> d           1.049   3.794   0.525  0.00  0.00     0.045 H 
ATOM      3  H9  <0> d           2.730   3.211   0.506  0.00  0.00     0.045 H 
ENDROOT
BRANCH   1   4
ATOM      4  C3  <0> d           1.919   3.650  -1.440  0.00  0.00    -0.059 C 
ATOM      5  H6  <0> d           2.636   3.017  -1.964  0.00  0.00     0.033 H 
ATOM      6  H7  <0> d           0.955   3.600  -1.946  0.00  0.00     0.033 H 
BRANCH   4   7
ATOM      7  C2  <0> d           2.421   5.095  -1.439  0.00  0.00    -0.068 C 
ATOM      8  H4  <0> d           1.704   5.728  -0.915  0.00  0.00     0.032 H 
ATOM      9  H5  <0> d           3.385   5.145  -0.933  0.00  0.00     0.032 H 
BRANCH   7  10
ATOM     10  C1  <0> d           2.574   5.584  -2.880  0.00  0.00    -0.077 C 
ATOM     11  H1  <0> d           3.291   4.951  -3.404  0.00  0.00     0.027 H 
ATOM     12  H2  <0> d           1.610   5.535  -3.385  0.00  0.00     0.027 H 
ATOM     13  H3  <0> d           2.932   6.614  -2.879  0.00  0.00     0.027 H 
ENDBRANCH   7  10
ENDBRANCH   4   7
ENDBRANCH   1   4
BRANCH   1  14
ATOM     14  C5  <0> d           1.272   1.738  -0.001  0.00  0.00     0.171 A 
ATOM     15  O1  <0> d          -0.016   1.342   0.009  0.00  0.00    -0.260 OA
ATOM     16  C6  <0> d           0.002  -0.004   0.002  0.00  0.00     0.265 A 
ATOM     17  N2  <0> d           1.259  -0.376  -0.012  0.00  0.00    -0.104 NA
ATOM     18  N1  <0> d           2.011   0.668  -0.014  0.00  0.00    -0.125 NA
BRANCH  16  19
ATOM     19  N3  <0> d          -1.100  -0.839   0.009  0.00  0.00    -0.362 N 
ATOM     20  H10 <0> d          -1.994  -0.462   0.019  0.00  0.00     0.159 HD
ATOM     21  H11 <0> d          -0.979  -1.802   0.002  0.00  0.00     0.159 HD
ENDBRANCH  16  19
ENDBRANCH   1  14
TORSDOF 5
