REMARK  0 active torsions:
REMARK  status: ('A' for Active; 'I' for Inactive)
ROOT
ATOM      1  C1  <0> d          -0.013   1.076   0.008  0.00  0.00    -0.056 A 
ATOM      2  C2  <0> d           1.138   1.770   0.001  0.00  0.00    -0.019 A 
ATOM      3  N1  <0> d           1.172   3.135   0.007  0.00  0.00    -0.333 N 
ATOM      4  H1  <0> d           2.033   3.582   0.002  0.00  0.00     0.168 HD
ATOM      5  C3  <0> d           0.050   3.883   0.021  0.00  0.00     0.256 A 
ATOM      6  O1  <0> d           0.118   5.099   0.027  0.00  0.00    -0.267 OA
ATOM      7  C4  <0> d          -1.254   3.212   0.030  0.00  0.00     0.045 A 
ATOM      8  C5  <0> d          -1.284   1.797   0.018  0.00  0.00    -0.002 A 
ATOM      9  C6  <0> d          -2.520   1.148   0.032  0.00  0.00     0.013 A 
ATOM     10  N2  <0> d          -3.631   1.854   0.046  0.00  0.00    -0.272 NA
ATOM     11  C7  <0> d          -3.637   3.176   0.053  0.00  0.00     0.003 A 
ATOM     12  C8  <0> d          -2.464   3.904   0.046  0.00  0.00    -0.050 A 
ATOM     13  H2  <0> d           0.002  -0.004   0.002  0.00  0.00     0.086 H 
ATOM     14  H3  <0> d           2.072   1.228  -0.010  0.00  0.00     0.111 H 
ATOM     15  H4  <0> d          -2.565   0.069   0.027  0.00  0.00     0.116 H 
ATOM     16  H5  <0> d          -4.582   3.699   0.065  0.00  0.00     0.114 H 
ATOM     17  H6  <0> d          -2.484   4.983   0.052  0.00  0.00     0.087 H 
ENDROOT
TORSDOF 0
