REMARK  4 active torsions:
REMARK  status: ('A' for Active; 'I' for Inactive)
REMARK    1  A    between atoms: C1_1  and  C2_2 
REMARK    2  A    between atoms: C2_2  and  C3_4 
REMARK    3  A    between atoms: C2_2  and  C5_7 
REMARK    4  A    between atoms: C3_4  and  C4_5 
ROOT
ATOM      1  C2  <0> d          -2.479   0.930   0.019  0.00  0.00     0.036 C 
ATOM      2  H1  <0> d          -2.367   0.252  -0.827  0.00  0.00     0.056 H 
ENDROOT
BRANCH   1   3
ATOM      3  C1  <0> d          -2.453   0.128   1.322  0.00  0.00    -0.063 C 
ATOM      4  H2  <0> d          -2.566   0.806   2.168  0.00  0.00     0.028 H 
ATOM      5  H3  <0> d          -3.272  -0.591   1.322  0.00  0.00     0.028 H 
ATOM      6  H4  <0> d          -1.504  -0.402   1.404  0.00  0.00     0.028 H 
ENDBRANCH   1   3
BRANCH   1   7
ATOM      7  C3  <0> d          -1.329   1.940   0.019  0.00  0.00     0.028 C 
ATOM      8  H5  <0> d          -1.391   2.561   0.913  0.00  0.00     0.050 H 
ATOM      9  H6  <0> d          -1.400   2.570  -0.867  0.00  0.00     0.050 H 
BRANCH   7  10
ATOM     10  C4  <0> d          -0.014   1.204   0.009  0.00  0.00     0.173 C 
ATOM     11  O1  <0> d           0.002  -0.004   0.002  0.00  0.00    -0.648 OA
ATOM     12  O3  <0> d           1.139   1.891   0.001  0.00  0.00    -0.648 OA
ENDBRANCH   7  10
ENDBRANCH   1   7
BRANCH   1  13
ATOM     13  C5  <0> d          -3.791   1.662  -0.095  0.00  0.00     0.177 C 
ATOM     14  O2  <0> d          -3.805   2.868  -0.168  0.00  0.00    -0.648 OA
ATOM     15  O4  <0> d          -4.944   0.975  -0.114  0.00  0.00    -0.648 OA
ENDBRANCH   1  13
TORSDOF 4
