REMARK  2 active torsions:
REMARK  status: ('A' for Active; 'I' for Inactive)
REMARK    1  A    between atoms: C3_3  and  C5_6 
REMARK    2  A    between atoms: C6_9  and  N3_11 
ROOT
ATOM      1  C1  <0> d          -1.153   1.901   0.017  0.00  0.00    -0.059 A 
ATOM      2  C2  <0> d          -0.013   1.076   0.008  0.00  0.00    -0.044 A 
ATOM      3  C3  <0> d           1.070   1.904   0.002  0.00  0.00     0.129 A 
ATOM      4  O1  <0> d           0.624   3.176   0.013  0.00  0.00    -0.318 OA
ATOM      5  C4  <0> d          -0.720   3.177   0.026  0.00  0.00     0.019 A 
ATOM      6  H1  <0> d          -2.183   1.573   0.019  0.00  0.00     0.086 H 
ATOM      7  H2  <0> d           0.002  -0.004   0.002  0.00  0.00     0.088 H 
ATOM      8  H3  <0> d          -1.348   4.055   0.037  0.00  0.00     0.123 H 
ENDROOT
BRANCH   3   9
ATOM      9  C5  <0> d           2.479   1.484  -0.014  0.00  0.00     0.228 A 
ATOM     10  O2  <0> d           3.558   2.299  -0.020  0.00  0.00    -0.253 OA
ATOM     11  C6  <0> d           4.638   1.495  -0.035  0.00  0.00     0.265 A 
ATOM     12  N2  <0> d           4.208   0.255  -0.037  0.00  0.00    -0.103 NA
ATOM     13  N1  <0> d           2.922   0.248  -0.020  0.00  0.00    -0.117 NA
BRANCH  11  14
ATOM     14  N3  <0> d           5.959   1.901  -0.045  0.00  0.00    -0.362 N 
ATOM     15  H4  <0> d           6.175   2.847  -0.042  0.00  0.00     0.159 HD
ATOM     16  H5  <0> d           6.669   1.241  -0.056  0.00  0.00     0.159 HD
ENDBRANCH  11  14
ENDBRANCH   3   9
TORSDOF 2
