REMARK  1 active torsions:
REMARK  status: ('A' for Active; 'I' for Inactive)
REMARK    1  A    between atoms: C4_4  and  C6_6 
ROOT
ATOM      1  C1  <0> d          -3.951   5.223   2.094  0.00  0.00    -0.065 C 
ATOM      2  C2  <0> d          -3.152   4.663   3.297  0.00  0.00    -0.065 C 
ATOM      3  C3  <0> d          -2.697   3.264   2.832  0.00  0.00    -0.061 C 
ATOM      4  C4  <0> d          -2.689   3.294   1.294  0.00  0.00    -0.044 C 
ATOM      5  C5  <0> d          -3.140   4.709   0.878  0.00  0.00    -0.061 C 
ATOM      6  H2  <0> d          -4.963   4.819   2.081  0.00  0.00     0.033 H 
ATOM      7  H3  <0> d          -3.968   6.312   2.114  0.00  0.00     0.033 H 
ATOM      8  H4  <0> d          -3.793   4.583   4.176  0.00  0.00     0.033 H 
ATOM      9  H5  <0> d          -2.289   5.294   3.509  0.00  0.00     0.033 H 
ATOM     10  H6  <0> d          -3.396   2.507   3.188  0.00  0.00     0.033 H 
ATOM     11  H7  <0> d          -1.695   3.054   3.207  0.00  0.00     0.033 H 
ATOM     12  H8  <0> d          -3.383   2.550   0.902  0.00  0.00     0.041 H 
ATOM     13  H9  <0> d          -2.275   5.348   0.699  0.00  0.00     0.033 H 
ATOM     14  H10 <0> d          -3.771   4.663  -0.010  0.00  0.00     0.033 H 
ENDROOT
BRANCH   4  15
ATOM     15  C6  <0> d          -1.278   3.019   0.771  0.00  0.00     0.007 C 
ATOM     16  H1  <0> d          -0.653   3.721   1.113  0.00  0.00     0.052 H 
ATOM     17  C10 <0> d          -1.278   3.012  -0.743  0.00  0.00     0.131 C 
ATOM     18  C9  <0> d          -0.829   1.632  -1.189  0.00  0.00    -0.009 C 
ATOM     19  O1  <0> d          -1.579   3.934  -1.462  0.00  0.00    -0.298 OA
ATOM     20  C8  <0> d          -0.013   1.086   0.008  0.00  0.00    -0.058 C 
ATOM     21  H15 <0> d          -0.248   1.665  -2.002  0.00  0.00     0.044 H 
ATOM     22  H16 <0> d          -1.691   0.994  -1.385  0.00  0.00     0.044 H 
ATOM     23  C7  <0> d          -0.807   1.620   1.227  0.00  0.00    -0.055 C 
ATOM     24  H13 <0> d           0.002  -0.004   0.002  0.00  0.00     0.033 H 
ATOM     25  H14 <0> d           1.001   1.486   0.001  0.00  0.00     0.033 H 
ATOM     26  H11 <0> d          -1.663   0.979   1.437  0.00  0.00     0.034 H 
ATOM     27  H12 <0> d          -0.160   1.696   2.102  0.00  0.00     0.034 H 
ENDBRANCH   4  15
TORSDOF 1
