REMARK  3 active torsions:
REMARK  status: ('A' for Active; 'I' for Inactive)
REMARK    1  A    between atoms: C1_1  and  C2_2 
REMARK    2  A    between atoms: C5_6  and  C8_11 
REMARK    3  A    between atoms: C8_11  and  C10_13 
ROOT
ATOM      1  C2  <0> d          -0.019   1.528   0.010  0.00  0.00     0.000 C 
ATOM      2  H1  <0> d          -0.486   1.856   0.832  0.00  0.00     0.051 H 
ATOM      3  C3  <0> d           0.002  -0.004   0.002  0.00  0.00    -0.055 C 
ATOM      4  C4  <0> d           0.855  -0.507   1.168  0.00  0.00    -0.057 C 
ATOM      5  C5  <0> d           2.305  -0.055   0.982  0.00  0.00    -0.027 C 
ATOM      6  H2  <0> d           2.675  -0.407   0.019  0.00  0.00     0.047 H 
ATOM      7  C6  <0> d           2.371   1.475   1.028  0.00  0.00    -0.003 C 
ATOM      8  C7  <0> d           1.409   2.028  -0.001  0.00  0.00     0.131 C 
ATOM      9  O1  <0> d           1.771   2.848  -0.809  0.00  0.00    -0.298 OA
ATOM     10  H6  <0> d          -1.015  -0.382   0.106  0.00  0.00     0.034 H 
ATOM     11  H7  <0> d           0.426  -0.357  -0.938  0.00  0.00     0.034 H 
ATOM     12  H8  <0> d           0.466  -0.103   2.102  0.00  0.00     0.034 H 
ATOM     13  H9  <0> d           0.817  -1.596   1.201  0.00  0.00     0.034 H 
ATOM     14  H10 <0> d           2.116   1.793   1.941  0.00  0.00     0.045 H 
ATOM     15  H11 <0> d           3.383   1.805   0.796  0.00  0.00     0.045 H 
ENDROOT
BRANCH   5  16
ATOM     16  C8  <0> d           3.155  -0.628   2.087  0.00  0.00    -0.089 C 
ATOM     17  C9  <0> d           4.159  -1.418   1.798  0.00  0.00    -0.119 C 
ATOM     18  H12 <0> d           4.769  -1.828   2.590  0.00  0.00     0.067 H 
ATOM     19  H13 <0> d           4.378  -1.659   0.768  0.00  0.00     0.067 H 
BRANCH  16  20
ATOM     20  C10 <0> d           2.850  -0.292   3.524  0.00  0.00    -0.055 C 
ATOM     21  H14 <0> d           1.987   0.373   3.566  0.00  0.00     0.033 H 
ATOM     22  H15 <0> d           2.631  -1.208   4.073  0.00  0.00     0.033 H 
ATOM     23  H16 <0> d           3.712   0.203   3.972  0.00  0.00     0.033 H 
ENDBRANCH  16  20
ENDBRANCH   5  16
BRANCH   1  24
ATOM     24  C1  <0> d          -0.752   2.039  -1.232  0.00  0.00    -0.066 C 
ATOM     25  H3  <0> d          -1.775   1.663  -1.230  0.00  0.00     0.028 H 
ATOM     26  H4  <0> d          -0.765   3.129  -1.223  0.00  0.00     0.028 H 
ATOM     27  H5  <0> d          -0.238   1.689  -2.127  0.00  0.00     0.028 H 
ENDBRANCH   1  24
TORSDOF 3
