REMARK  4 active torsions:
REMARK  status: ('A' for Active; 'I' for Inactive)
REMARK    1  A    between atoms: C1_1  and  C2_2 
REMARK    2  A    between atoms: C2_2  and  C3_3 
REMARK    3  A    between atoms: C3_3  and  O2_5 
REMARK    4  A    between atoms: O2_5  and  C4_6 
ROOT
ATOM      1  C3  <0> d           0.001  -0.003  -0.011  0.00  0.00     0.263 C 
ATOM      2  O1  <0> d           1.060  -0.594  -0.029  0.00  0.00    -0.265 OA
ENDROOT
BRANCH   1   3
ATOM      3  C2  <0> d          -0.021   1.504  -0.011  0.00  0.00     0.013 C 
ATOM      4  H5  <0> d          -0.555   1.859  -0.891  0.00  0.00     0.047 H 
ATOM      5  H6  <0> d          -0.524   1.860   0.888  0.00  0.00     0.047 H 
BRANCH   3   6
ATOM      6  C1  <0> d           1.414   2.035  -0.035  0.00  0.00    -0.068 C 
ATOM      7  H2  <0> d           1.948   1.679   0.846  0.00  0.00     0.028 H 
ATOM      8  H3  <0> d           1.918   1.679  -0.934  0.00  0.00     0.028 H 
ATOM      9  H4  <0> d           1.399   3.124  -0.035  0.00  0.00     0.028 H 
ENDBRANCH   3   6
ENDBRANCH   1   3
BRANCH   1  10
ATOM     10  O2  <0> d          -1.151  -0.691   0.009  0.00  0.00    -0.276 OA
BRANCH  10  11
ATOM     11  C4  <0> d          -1.065  -2.045  -0.104  0.00  0.00     0.115 A 
ATOM     12  C6  <0> d           0.118  -2.797  -0.136  0.00  0.00     0.056 A 
ATOM     13  N2  <0> d          -0.203  -4.061  -0.251  0.00  0.00    -0.185 NA
ATOM     14  H8  <0> d           1.121  -2.402  -0.074  0.00  0.00     0.121 H 
ATOM     15  N1  <0> d          -1.600  -4.156  -0.305  0.00  0.00    -0.287 N 
ATOM     16  C5  <0> d          -2.107  -2.906  -0.213  0.00  0.00     0.030 A 
ATOM     17  H1  <0> d          -2.128  -5.000  -0.395  0.00  0.00     0.188 HD
ATOM     18  H7  <0> d          -3.154  -2.640  -0.225  0.00  0.00     0.118 H 
ENDBRANCH  10  11
ENDBRANCH   1  10
TORSDOF 4
