REMARK  3 active torsions:
REMARK  status: ('A' for Active; 'I' for Inactive)
REMARK    1  A    between atoms: C1_1  and  N1_2 
REMARK    2  A    between atoms: C2_3  and  N5_8 
REMARK    3  A    between atoms: C3_5  and  N4_7 
ROOT
ATOM      1  N1  <0> d           1.064   2.187   0.004  0.00  0.00    -0.088 N 
ATOM      2  C2  <0> d          -0.017   1.379   0.010  0.00  0.00     0.732 A 
ATOM      3  N2  <0> d          -1.092   2.138   0.018  0.00  0.00     0.130 NA
ATOM      4  C3  <0> d          -0.732   3.426   0.027  0.00  0.00     0.753 A 
ATOM      5  N3  <0> d           0.576   3.503   0.015  0.00  0.00     0.036 NA
ENDROOT
BRANCH   1   6
ATOM      6  C1  <0> d           2.469   1.772  -0.011  0.00  0.00     0.020 C 
ATOM      7  H1  <0> d           2.808   1.674  -1.042  0.00  0.00     0.060 H 
ATOM      8  H2  <0> d           3.074   2.520   0.501  0.00  0.00     0.060 H 
ATOM      9  H3  <0> d           2.570   0.813   0.498  0.00  0.00     0.060 H 
ENDBRANCH   1   6
BRANCH   2  10
ATOM     10  N5  <0> d           0.002  -0.004   0.002  0.00  0.00    -0.231 N 
ATOM     11  H6  <0> d           0.849  -0.478  -0.009  0.00  0.00     0.174 HD
ATOM     12  H7  <0> d          -0.831  -0.500   0.007  0.00  0.00     0.174 HD
ENDBRANCH   2  10
BRANCH   4  13
ATOM     13  N4  <0> d          -1.609   4.513   0.041  0.00  0.00    -0.229 N 
ATOM     14  H4  <0> d          -1.259   5.418   0.043  0.00  0.00     0.174 HD
ATOM     15  H5  <0> d          -2.567   4.363   0.049  0.00  0.00     0.174 HD
ENDBRANCH   4  13
TORSDOF 3
