REMARK  2 active torsions:
REMARK  status: ('A' for Active; 'I' for Inactive)
REMARK    1  A    between atoms: C1_1  and  C2_2 
REMARK       I    between atoms: C2_2  and  N1_4 
REMARK    2  A    between atoms: C7_9  and  C8_11 
ROOT
ATOM      1  C8  <0> d          -1.722  -2.651  -1.265  0.00  0.00    -0.092 C 
ATOM      2  C9  <0> d          -2.178  -3.040  -2.275  0.00  0.00    -0.152 C 
ATOM      3  H13 <0> d          -2.584  -3.389  -3.178  0.00  0.00     0.166 H 
ENDROOT
BRANCH   1   4
ATOM      4  C7  <0> d          -1.152  -2.163   0.001  0.00  0.00     0.073 C 
ATOM      5  N1  <0> d          -1.156  -0.694   0.009  0.00  0.00    -0.337 N 
ATOM      6  C2  <0> d           0.002  -0.004   0.002  0.00  0.00     0.216 C 
ATOM      7  C3  <0> d          -2.446   0.009   0.019  0.00  0.00    -0.001 C 
ATOM      8  O1  <0> d           1.060  -0.596  -0.011  0.00  0.00    -0.274 OA
ATOM      9  C4  <0> d          -3.283  -0.512   1.192  0.00  0.00    -0.050 C 
ATOM     10  H5  <0> d          -2.278   1.080   0.138  0.00  0.00     0.064 H 
ATOM     11  H6  <0> d          -2.972  -0.179  -0.917  0.00  0.00     0.064 H 
ATOM     12  C5  <0> d          -3.397  -2.035   1.094  0.00  0.00    -0.061 C 
ATOM     13  H7  <0> d          -2.800  -0.243   2.131  0.00  0.00     0.035 H 
ATOM     14  H8  <0> d          -4.278  -0.069   1.154  0.00  0.00     0.035 H 
ATOM     15  C6  <0> d          -2.003  -2.660   1.180  0.00  0.00    -0.036 C 
ATOM     16  H9  <0> d          -4.013  -2.406   1.913  0.00  0.00     0.033 H 
ATOM     17  H10 <0> d          -3.858  -2.304   0.143  0.00  0.00     0.033 H 
ATOM     18  H11 <0> d          -1.532  -2.371   2.119  0.00  0.00     0.037 H 
ATOM     19  H12 <0> d          -2.088  -3.746   1.133  0.00  0.00     0.037 H 
ATOM     20  H1  <0> d          -0.130  -2.526   0.108  0.00  0.00     0.093 H 
BRANCH   6  21
ATOM     21  C1  <0> d          -0.018   1.503   0.010  0.00  0.00    -0.003 C 
ATOM     22  H2  <0> d           1.004   1.880   0.003  0.00  0.00     0.040 H 
ATOM     23  H3  <0> d          -0.545   1.864  -0.873  0.00  0.00     0.040 H 
ATOM     24  H4  <0> d          -0.529   1.854   0.907  0.00  0.00     0.040 H 
ENDBRANCH   6  21
ENDBRANCH   1   4
TORSDOF 2
