REMARK  6 active torsions:
REMARK  status: ('A' for Active; 'I' for Inactive)
REMARK    1  A    between atoms: C1_1  and  C2_2 
REMARK    2  A    between atoms: C2_2  and  C3_3 
REMARK    3  A    between atoms: C2_2  and  C4_4 
REMARK    4  A    between atoms: C4_4  and  O1_5 
REMARK    5  A    between atoms: O1_5  and  C5_6 
REMARK    6  A    between atoms: C5_6  and  C6_7 
REMARK       I    between atoms: C6_7  and  N1_9 
ROOT
ATOM      1  C4  <0> d          -3.701   1.598   0.028  0.00  0.00     0.023 C 
ATOM      2  H8  <0> d          -3.812   2.212   0.922  0.00  0.00     0.074 H 
ATOM      3  H9  <0> d          -3.821   2.221  -0.858  0.00  0.00     0.074 H 
ENDROOT
BRANCH   1   4
ATOM      4  C2  <0> d          -4.767   0.500   0.027  0.00  0.00    -0.041 C 
ATOM      5  H4  <0> d          -4.594  -0.175   0.865  0.00  0.00     0.042 H 
BRANCH   4   6
ATOM      6  C1  <0> d          -6.153   1.135   0.163  0.00  0.00    -0.071 C 
ATOM      7  H1  <0> d          -6.327   1.811  -0.674  0.00  0.00     0.028 H 
ATOM      8  H2  <0> d          -6.912   0.353   0.163  0.00  0.00     0.028 H 
ATOM      9  H3  <0> d          -6.207   1.693   1.098  0.00  0.00     0.028 H 
ENDBRANCH   4   6
BRANCH   4  10
ATOM     10  C3  <0> d          -4.691  -0.283  -1.285  0.00  0.00    -0.071 C 
ATOM     11  H5  <0> d          -3.704  -0.735  -1.381  0.00  0.00     0.028 H 
ATOM     12  H6  <0> d          -5.451  -1.065  -1.285  0.00  0.00     0.028 H 
ATOM     13  H7  <0> d          -4.865   0.393  -2.122  0.00  0.00     0.028 H 
ENDBRANCH   4  10
ENDBRANCH   1   4
BRANCH   1  14
ATOM     14  O1  <0> d          -2.403   1.001   0.019  0.00  0.00    -0.382 OA
BRANCH  14  15
ATOM     15  C5  <0> d          -1.330   1.944   0.019  0.00  0.00     0.092 C 
ATOM     16  H10 <0> d          -1.392   2.565   0.913  0.00  0.00     0.089 H 
ATOM     17  H11 <0> d          -1.400   2.575  -0.867  0.00  0.00     0.089 H 
BRANCH  15  18
ATOM     18  C6  <0> d          -0.014   1.209   0.009  0.00  0.00     0.239 C 
ATOM     19  O2  <0> d           0.002  -0.004   0.002  0.00  0.00    -0.271 OA
ATOM     20  N1  <0> d           1.143   1.898   0.001  0.00  0.00    -0.368 N 
ATOM     21  H12 <0> d           1.990   1.425  -0.009  0.00  0.00     0.159 HD
ATOM     22  H13 <0> d           1.130   2.868   0.007  0.00  0.00     0.159 HD
ENDBRANCH  15  18
ENDBRANCH  14  15
ENDBRANCH   1  14
TORSDOF 6
