REMARK  1 active torsions:
REMARK  status: ('A' for Active; 'I' for Inactive)
REMARK    1  A    between atoms: C1_1  and  C2_2 
ROOT
ATOM      1  C2  <0> d          -1.220   1.751   0.017  0.00  0.00     0.050 A 
ATOM      2  C3  <0> d          -0.013   1.076   0.008  0.00  0.00     0.025 A 
ATOM      3  N1  <0> d           1.123   1.752   0.001  0.00  0.00    -0.268 NA
ATOM      4  C4  <0> d           1.106   3.073   0.008  0.00  0.00     0.041 A 
ATOM      5  C5  <0> d          -0.103   3.749   0.022  0.00  0.00     0.143 A 
ATOM      6  N2  <0> d          -1.239   3.072   0.029  0.00  0.00    -0.239 NA
ATOM      7 Cl1  <0> d          -0.127   5.485   0.032  0.00  0.00    -0.061 Cl
ATOM      8  H4  <0> d           0.002  -0.004   0.002  0.00  0.00     0.117 H 
ATOM      9  H5  <0> d           2.034   3.625   0.001  0.00  0.00     0.119 H 
ENDROOT
BRANCH   1  10
ATOM     10  C1  <0> d          -2.515   0.979   0.019  0.00  0.00    -0.034 C 
ATOM     11  H1  <0> d          -2.822   0.787   1.047  0.00  0.00     0.035 H 
ATOM     12  H2  <0> d          -3.285   1.560  -0.488  0.00  0.00     0.035 H 
ATOM     13  H3  <0> d          -2.373   0.031  -0.500  0.00  0.00     0.035 H 
ENDBRANCH   1  10
TORSDOF 1
