REMARK  2 active torsions:
REMARK  status: ('A' for Active; 'I' for Inactive)
REMARK    1  A    between atoms: C1_1  and  C2_2 
REMARK    2  A    between atoms: C5_6  and  N2_8 
ROOT
ATOM      1  C2  <0> d           0.002  -0.004   0.002  0.00  0.00    -0.057 A 
ATOM      2  C3  <0> d           0.006  -0.707  -1.195  0.00  0.00    -0.060 A 
ATOM      3  C4  <0> d           0.025  -2.088  -1.167  0.00  0.00     0.005 A 
ATOM      4  N1  <0> d           0.039  -2.741  -0.021  0.00  0.00    -0.243 NA
ATOM      5  C5  <0> d           0.035  -2.107   1.140  0.00  0.00     0.133 A 
ATOM      6  C6  <0> d           0.023  -0.718   1.187  0.00  0.00    -0.032 A 
ATOM      7  H4  <0> d          -0.006  -0.180  -2.137  0.00  0.00     0.086 H 
ATOM      8  H5  <0> d           0.028  -2.640  -2.095  0.00  0.00     0.114 H 
ATOM      9  H6  <0> d           0.025  -0.203   2.137  0.00  0.00     0.090 H 
ENDROOT
BRANCH   5  10
ATOM     10  N2  <0> d           0.050  -2.840   2.329  0.00  0.00    -0.318 N 
ATOM     11  C10 <0> d           0.069  -4.203   2.425  0.00  0.00    -0.014 A 
ATOM     12  C9  <0> d           0.083  -4.533   3.732  0.00  0.00    -0.066 A 
ATOM     13  H10 <0> d           0.074  -4.896   1.597  0.00  0.00     0.112 H 
ATOM     14  C8  <0> d           0.063  -3.333   4.472  0.00  0.00    -0.066 A 
ATOM     15  H9  <0> d           0.102  -5.534   4.139  0.00  0.00     0.085 H 
ATOM     16  C7  <0> d           0.043  -2.314   3.591  0.00  0.00    -0.014 A 
ATOM     17  H8  <0> d           0.063  -3.247   5.549  0.00  0.00     0.085 H 
ATOM     18  H7  <0> d           0.025  -1.263   3.838  0.00  0.00     0.112 H 
ENDBRANCH   5  10
BRANCH   1  19
ATOM     19  C1  <0> d          -0.018   1.503   0.010  0.00  0.00    -0.051 C 
ATOM     20  H1  <0> d           1.004   1.880   0.003  0.00  0.00     0.033 H 
ATOM     21  H2  <0> d          -0.545   1.864  -0.873  0.00  0.00     0.033 H 
ATOM     22  H3  <0> d          -0.529   1.854   0.907  0.00  0.00     0.033 H 
ENDBRANCH   1  19
TORSDOF 2
