REMARK  2 active torsions:
REMARK  status: ('A' for Active; 'I' for Inactive)
REMARK    1  A    between atoms: C7_8  and  C8_10 
REMARK    2  A    between atoms: C8_10  and  O2_11 
ROOT
ATOM      1  C1  <0> d          -0.017   1.373   0.010  0.00  0.00    -0.081 A 
ATOM      2  C2  <0> d           1.170   2.091   0.002  0.00  0.00    -0.080 A 
ATOM      3  C3  <0> d           2.384   1.437  -0.013  0.00  0.00    -0.048 A 
ATOM      4  C4  <0> d           2.421   0.051  -0.021  0.00  0.00     0.106 A 
ATOM      5  C5  <0> d           1.223  -0.680  -0.013  0.00  0.00     0.093 A 
ATOM      6  C6  <0> d           0.002  -0.004   0.002  0.00  0.00    -0.052 A 
ATOM      7  N1  <0> d           1.572  -1.995  -0.024  0.00  0.00    -0.224 NA
ATOM      8  C7  <0> d           2.868  -2.084  -0.037  0.00  0.00     0.170 A 
ATOM      9  O1  <0> d           3.419  -0.860  -0.036  0.00  0.00    -0.291 OA
ATOM     10  H1  <0> d          -0.961   1.896   0.026  0.00  0.00     0.083 H 
ATOM     11  H2  <0> d           1.143   3.171   0.008  0.00  0.00     0.083 H 
ATOM     12  H3  <0> d           3.304   2.003  -0.020  0.00  0.00     0.087 H 
ATOM     13  H4  <0> d          -0.924  -0.559   0.007  0.00  0.00     0.087 H 
ENDROOT
BRANCH   8  14
ATOM     14  C8  <0> d           3.642  -3.377  -0.051  0.00  0.00     0.077 C 
ATOM     15  H5  <0> d           4.598  -3.234   0.454  0.00  0.00     0.086 H 
ATOM     16  H6  <0> d           3.071  -4.149   0.464  0.00  0.00     0.086 H 
BRANCH  14  17
ATOM     17  O2  <0> d           3.874  -3.779  -1.403  0.00  0.00    -0.393 OA
ATOM     18  H7  <0> d           4.368  -4.605  -1.489  0.00  0.00     0.210 HD
ENDBRANCH  14  17
ENDBRANCH   8  14
TORSDOF 2
