REMARK  0 active torsions:
REMARK  status: ('A' for Active; 'I' for Inactive)
ROOT
ATOM      1  C1  <0> d          -0.013   1.076   0.008  0.00  0.00    -0.065 A 
ATOM      2  C2  <0> d          -1.217   1.758   0.017  0.00  0.00    -0.064 A 
ATOM      3  C3  <0> d          -1.180   3.155   0.031  0.00  0.00     0.055 A 
ATOM      4  C4  <0> d           0.064   3.815   0.025  0.00  0.00     0.137 A 
ATOM      5  N1  <0> d           1.185   3.109   0.009  0.00  0.00    -0.243 NA
ATOM      6  C5  <0> d           1.173   1.790   0.001  0.00  0.00     0.004 A 
ATOM      7  N2  <0> d           0.108   5.196   0.041  0.00  0.00    -0.374 N 
ATOM      8  C6  <0> d          -1.072   5.973  -0.354  0.00  0.00     0.001 C 
ATOM      9  C7  <0> d          -2.301   5.420   0.382  0.00  0.00     0.010 C 
ATOM     10  C8  <0> d          -2.417   3.946   0.044  0.00  0.00     0.164 C 
ATOM     11  O1  <0> d          -3.491   3.441  -0.207  0.00  0.00    -0.292 OA
ATOM     12  H1  <0> d           0.002  -0.004   0.002  0.00  0.00     0.085 H 
ATOM     13  H2  <0> d          -2.158   1.226   0.018  0.00  0.00     0.085 H 
ATOM     14  H3  <0> d           2.111   1.255  -0.013  0.00  0.00     0.114 H 
ATOM     15  H4  <0> d           1.029   5.714   0.350  0.00  0.00     0.161 HD
ATOM     16  H5  <0> d          -0.923   7.029  -0.087  0.00  0.00     0.064 H 
ATOM     17  H6  <0> d          -1.220   5.886  -1.441  0.00  0.00     0.064 H 
ATOM     18  H7  <0> d          -2.170   5.554   1.466  0.00  0.00     0.047 H 
ATOM     19  H8  <0> d          -3.200   5.960   0.052  0.00  0.00     0.047 H 
ENDROOT
TORSDOF 0
