REMARK  2 active torsions:
REMARK  status: ('A' for Active; 'I' for Inactive)
REMARK    1  A    between atoms: C8_8  and  C10_11 
REMARK    2  A    between atoms: C10_11  and  O1_12 
ROOT
ATOM      1  C1  <0> d           0.736   7.275  -2.190  0.00  0.00    -0.082 A 
ATOM      2  C2  <0> d           0.689   7.903  -0.947  0.00  0.00    -0.081 A 
ATOM      3  C3  <0> d           0.766   7.185   0.206  0.00  0.00    -0.054 A 
ATOM      4  C4  <0> d           0.895   5.786   0.149  0.00  0.00     0.066 A 
ATOM      5  C5  <0> d           0.943   5.150  -1.116  0.00  0.00    -0.007 A 
ATOM      6  C6  <0> d           0.861   5.923  -2.285  0.00  0.00    -0.071 A 
ATOM      7  C7  <0> d           1.078   3.750  -1.171  0.00  0.00    -0.061 A 
ATOM      8  C8  <0> d           1.147   3.062   0.008  0.00  0.00    -0.016 A 
ATOM      9  C9  <0> d           1.094   3.750   1.218  0.00  0.00     0.011 A 
ATOM     10  N1  <0> d           0.973   5.054   1.265  0.00  0.00    -0.260 NA
ATOM     11  H1  <0> d           0.673   7.869  -3.090  0.00  0.00     0.083 H 
ATOM     12  H2  <0> d           0.590   8.978  -0.898  0.00  0.00     0.083 H 
ATOM     13  H3  <0> d           0.728   7.687   1.161  0.00  0.00     0.087 H 
ATOM     14  H4  <0> d           0.896   5.448  -3.254  0.00  0.00     0.084 H 
ATOM     15  H5  <0> d           1.122   3.233  -2.118  0.00  0.00     0.085 H 
ATOM     16  H6  <0> d           1.154   3.193   2.142  0.00  0.00     0.115 H 
ENDROOT
BRANCH   8  17
ATOM     17  C10 <0> d           1.286   1.562  -0.002  0.00  0.00     0.042 C 
ATOM     18  H7  <0> d           1.840   1.243   0.881  0.00  0.00     0.081 H 
ATOM     19  H8  <0> d           1.823   1.252  -0.899  0.00  0.00     0.081 H 
BRANCH  17  20
ATOM     20  O1  <0> d          -0.011   0.963   0.007  0.00  0.00    -0.396 OA
ATOM     21  H9  <0> d           0.002  -0.004   0.002  0.00  0.00     0.209 HD
ENDBRANCH  17  20
ENDBRANCH   8  17
TORSDOF 2
