REMARK  4 active torsions:
REMARK  status: ('A' for Active; 'I' for Inactive)
REMARK    1  A    between atoms: C1_1  and  C2_2 
REMARK    2  A    between atoms: C2_2  and  C3_3 
REMARK    3  A    between atoms: C4_4  and  C7_10 
REMARK    4  A    between atoms: C6_7  and  N3_9 
ROOT
ATOM      1  C3  <0> d           0.707  -0.490  -1.238  0.00  0.00     0.060 A 
ATOM      2  C4  <0> d          -0.004  -0.722  -2.405  0.00  0.00    -0.019 A 
ATOM      3  C5  <0> d           0.683  -1.168  -3.522  0.00  0.00     0.029 A 
ATOM      4  N1  <0> d           1.990  -1.358  -3.443  0.00  0.00    -0.075 NA
ATOM      5  C6  <0> d           2.640  -1.127  -2.313  0.00  0.00     0.720 A 
ATOM      6  N2  <0> d           2.014  -0.696  -1.228  0.00  0.00    -0.067 NA
ATOM      7  H6  <0> d           0.158  -1.358  -4.447  0.00  0.00     0.116 H 
ENDROOT
BRANCH   1   8
ATOM      8  C2  <0> d           0.002  -0.004   0.002  0.00  0.00    -0.027 C 
ATOM      9  H4  <0> d           0.529  -0.365   0.885  0.00  0.00     0.041 H 
ATOM     10  H5  <0> d          -1.020  -0.381   0.010  0.00  0.00     0.041 H 
BRANCH   8  11
ATOM     11  C1  <0> d          -0.019   1.526   0.010  0.00  0.00    -0.071 C 
ATOM     12  H1  <0> d           1.004   1.903   0.003  0.00  0.00     0.028 H 
ATOM     13  H2  <0> d          -0.546   1.887  -0.873  0.00  0.00     0.028 H 
ATOM     14  H3  <0> d          -0.529   1.877   0.907  0.00  0.00     0.028 H 
ENDBRANCH   8  11
ENDBRANCH   1   8
BRANCH   2  15
ATOM     15  C7  <0> d          -1.493  -0.494  -2.456  0.00  0.00    -0.048 C 
ATOM     16  H9  <0> d          -1.693   0.534  -2.759  0.00  0.00     0.033 H 
ATOM     17  H10 <0> d          -1.941  -1.178  -3.177  0.00  0.00     0.033 H 
ATOM     18  H11 <0> d          -1.923  -0.672  -1.470  0.00  0.00     0.033 H 
ENDBRANCH   2  15
BRANCH   5  19
ATOM     19  N3  <0> d           4.007  -1.337  -2.265  0.00  0.00    -0.231 N 
ATOM     20  H7  <0> d           4.478  -1.650  -3.054  0.00  0.00     0.174 HD
ATOM     21  H8  <0> d           4.495  -1.172  -1.443  0.00  0.00     0.174 HD
ENDBRANCH   5  19
TORSDOF 4
