REMARK  1 active torsions:
REMARK  status: ('A' for Active; 'I' for Inactive)
REMARK    1  A    between atoms: C4_4  and  N2_9 
ROOT
ATOM      1  C1  <0> d          -1.495   3.995   0.038  0.00  0.00    -0.065 C 
ATOM      2  C2  <0> d          -0.779   3.501  -1.221  0.00  0.00    -0.062 C 
ATOM      3  C3  <0> d          -0.758   1.972  -1.229  0.00  0.00    -0.019 C 
ATOM      4  C4  <0> d          -0.018   1.465   0.010  0.00  0.00     0.242 C 
ATOM      5  C5  <0> d          -0.734   1.958   1.269  0.00  0.00    -0.019 C 
ATOM      6  C6  <0> d          -0.755   3.488   1.277  0.00  0.00    -0.062 C 
ATOM      7  C7  <0> d           1.363   1.974  -0.000  0.00  0.00     0.101 C 
ATOM      8  N1  <0> d           2.429   2.368  -0.008  0.00  0.00    -0.195 NA
ATOM      9  H1  <0> d          -2.527   3.614   0.046  0.00  0.00     0.033 H 
ATOM     10  H2  <0> d          -1.510   5.095   0.044  0.00  0.00     0.033 H 
ATOM     11  H3  <0> d          -1.311   3.866  -2.112  0.00  0.00     0.033 H 
ATOM     12  H4  <0> d           0.253   3.882  -1.229  0.00  0.00     0.033 H 
ATOM     13  H5  <0> d          -1.790   1.591  -1.222  0.00  0.00     0.038 H 
ATOM     14  H6  <0> d          -0.243   1.617  -2.134  0.00  0.00     0.038 H 
ATOM     15  H7  <0> d          -1.766   1.577   1.277  0.00  0.00     0.038 H 
ATOM     16  H8  <0> d          -0.202   1.594   2.160  0.00  0.00     0.038 H 
ATOM     17  H9  <0> d           0.277   3.869   1.270  0.00  0.00     0.033 H 
ATOM     18  H10 <0> d          -1.270   3.843   2.182  0.00  0.00     0.033 H 
ENDROOT
BRANCH   4  19
ATOM     19  N2  <0> d           0.002  -0.004   0.002  0.00  0.00     0.102 N 
ATOM     20  H11 <0> d           0.534  -0.368   0.893  0.00  0.00     0.315 HD
ATOM     21  H12 <0> d          -1.030  -0.385   0.010  0.00  0.00     0.315 HD
ENDBRANCH   4  19
TORSDOF 1
