REMARK  2 active torsions:
REMARK  status: ('A' for Active; 'I' for Inactive)
REMARK    1  A    between atoms: C1_1  and  N1_2 
REMARK    2  A    between atoms: N1_2  and  C2_3 
ROOT
ATOM      1  C2  <0> d          -0.017   1.383   0.010  0.00  0.00     0.109 A 
ATOM      2  C3  <0> d           0.002  -0.004   0.008  0.00  0.00    -0.029 A 
ATOM      3  C4  <0> d           1.226  -0.657  -0.002  0.00  0.00    -0.015 A 
ATOM      4  N2  <0> d           2.348   0.043  -0.009  0.00  0.00    -0.317 N 
ATOM      5  C5  <0> d           2.331   1.375  -0.013  0.00  0.00     0.347 A 
ATOM      6  O1  <0> d           3.386   1.987  -0.020  0.00  0.00    -0.245 OA
ATOM      7  N3  <0> d           1.171   2.057   0.002  0.00  0.00    -0.182 NA
ATOM      8  H1  <0> d           3.225  -0.436  -0.012  0.00  0.00     0.170 HD
ATOM      9  H6  <0> d          -0.920  -0.566   0.014  0.00  0.00     0.090 H 
ATOM     10  H7  <0> d           1.263  -1.736  -0.004  0.00  0.00     0.111 H 
ENDROOT
BRANCH   1  11
ATOM     11  N1  <0> d          -1.206   2.065   0.019  0.00  0.00    -0.281 NA
ATOM     12  H5  <0> d          -1.673   1.725   0.836  0.00  0.00     0.128 HD
BRANCH  11  13
ATOM     13  C1  <0> d          -1.211   3.530   0.027  0.00  0.00    -0.030 C 
ATOM     14  H2  <0> d          -0.694   3.890   0.916  0.00  0.00     0.048 H 
ATOM     15  H3  <0> d          -0.702   3.899  -0.863  0.00  0.00     0.048 H 
ATOM     16  H4  <0> d          -2.240   3.890   0.034  0.00  0.00     0.048 H 
ENDBRANCH  11  13
ENDBRANCH   1  11
TORSDOF 2
