REMARK  5 active torsions:
REMARK  status: ('A' for Active; 'I' for Inactive)
REMARK    1  A    between atoms: C1_1  and  N1_2 
REMARK    2  A    between atoms: N1_2  and  C2_3 
REMARK    3  A    between atoms: N1_2  and  C3_4 
REMARK    4  A    between atoms: C7_8  and  O1_10 
REMARK    5  A    between atoms: O1_10  and  C9_11 
ROOT
ATOM      1  C3  <0> d          -2.078   1.772   1.193  0.00  0.00     0.032 A 
ATOM      2  C4  <0> d          -2.731   2.215   2.338  0.00  0.00    -0.057 A 
ATOM      3  C5  <0> d          -4.095   2.432   2.316  0.00  0.00    -0.078 A 
ATOM      4  C6  <0> d          -4.816   2.199   1.160  0.00  0.00    -0.051 A 
ATOM      5  C7  <0> d          -4.171   1.751   0.016  0.00  0.00     0.070 A 
ATOM      6  C8  <0> d          -2.801   1.538   0.032  0.00  0.00    -0.025 A 
ATOM      7  H7  <0> d          -2.170   2.394   3.243  0.00  0.00     0.086 H 
ATOM      8  H8  <0> d          -4.599   2.779   3.205  0.00  0.00     0.083 H 
ATOM      9  H9  <0> d          -5.883   2.365   1.147  0.00  0.00     0.087 H 
ATOM     10  H10 <0> d          -2.297   1.190  -0.858  0.00  0.00     0.091 H 
ENDROOT
BRANCH   1  11
ATOM     11  N1  <0> d          -0.698   1.558   1.213  0.00  0.00    -0.389 N 
BRANCH  11  12
ATOM     12  C1  <0> d          -0.013   1.086   0.008  0.00  0.00    -0.019 C 
ATOM     13  H1  <0> d           0.002  -0.004   0.002  0.00  0.00     0.056 H 
ATOM     14  H2  <0> d           1.010   1.463   0.000  0.00  0.00     0.056 H 
ATOM     15  H3  <0> d          -0.540   1.447  -0.875  0.00  0.00     0.056 H 
ENDBRANCH  11  12
BRANCH  11  16
ATOM     16  C2  <0> d           0.063   1.806   2.440  0.00  0.00    -0.019 C 
ATOM     17  H4  <0> d           0.408   2.840   2.451  0.00  0.00     0.056 H 
ATOM     18  H5  <0> d          -0.574   1.626   3.306  0.00  0.00     0.056 H 
ATOM     19  H6  <0> d           0.923   1.137   2.475  0.00  0.00     0.056 H 
ENDBRANCH  11  16
ENDBRANCH   1  11
BRANCH   5  20
ATOM     20  O1  <0> d          -4.881   1.522  -1.120  0.00  0.00    -0.356 OA
BRANCH  20  21
ATOM     21  C9  <0> d          -6.289   1.763  -1.064  0.00  0.00     0.010 C 
ATOM     22  H11 <0> d          -6.469   2.808  -0.812  0.00  0.00     0.066 H 
ATOM     23  H12 <0> d          -6.734   1.542  -2.034  0.00  0.00     0.066 H 
ATOM     24  H13 <0> d          -6.737   1.123  -0.304  0.00  0.00     0.066 H 
ENDBRANCH  20  21
ENDBRANCH   5  20
TORSDOF 5
