REMARK  1 active torsions:
REMARK  status: ('A' for Active; 'I' for Inactive)
REMARK    1  A    between atoms: C1_1  and  C2_2 
ROOT
ATOM      1  C2  <0> d          -1.702   5.341   0.045  0.00  0.00     0.006 A 
ATOM      2  C3  <0> d          -2.295   4.137   0.045  0.00  0.00    -0.050 A 
ATOM      3  C4  <0> d          -1.228   3.133   0.030  0.00  0.00    -0.008 A 
ATOM      4  C5  <0> d          -1.208   1.737   0.017  0.00  0.00    -0.071 A 
ATOM      5  C6  <0> d          -0.013   1.076   0.008  0.00  0.00    -0.082 A 
ATOM      6  C7  <0> d           1.183   1.781   0.000  0.00  0.00    -0.081 A 
ATOM      7  C8  <0> d           1.187   3.158   0.007  0.00  0.00    -0.056 A 
ATOM      8  C9  <0> d          -0.018   3.852   0.021  0.00  0.00     0.042 A 
ATOM      9  N1  <0> d          -0.342   5.191   0.031  0.00  0.00    -0.359 N 
ATOM     10  H1  <0> d           0.299   5.919   0.029  0.00  0.00     0.166 HD
ATOM     11  H5  <0> d          -3.358   3.944   0.054  0.00  0.00     0.087 H 
ATOM     12  H6  <0> d          -2.134   1.182   0.019  0.00  0.00     0.084 H 
ATOM     13  H7  <0> d           0.002  -0.004   0.002  0.00  0.00     0.083 H 
ATOM     14  H8  <0> d           2.120   1.244  -0.011  0.00  0.00     0.083 H 
ATOM     15  H9  <0> d           2.123   3.698   0.000  0.00  0.00     0.086 H 
ENDROOT
BRANCH   1  16
ATOM     16  C1  <0> d          -2.426   6.662   0.059  0.00  0.00    -0.037 C 
ATOM     17  H2  <0> d          -2.611   6.986  -0.965  0.00  0.00     0.035 H 
ATOM     18  H3  <0> d          -3.376   6.550   0.582  0.00  0.00     0.035 H 
ATOM     19  H4  <0> d          -1.816   7.406   0.571  0.00  0.00     0.035 H 
ENDBRANCH   1  16
TORSDOF 1
