REMARK  4 active torsions:
REMARK  status: ('A' for Active; 'I' for Inactive)
REMARK    1  A    between atoms: C1_1  and  O1_2 
REMARK    2  A    between atoms: O1_2  and  C2_3 
REMARK    3  A    between atoms: C2_3  and  C3_5 
REMARK    4  A    between atoms: C5_10  and  N3_11 
ROOT
ATOM      1  C3  <0> d           0.659  -2.065  -1.122  0.00  0.00     0.103 A 
ATOM      2  C4  <0> d           0.129  -2.979  -0.180  0.00  0.00     0.041 A 
ATOM      3  N1  <0> d           0.380  -4.186  -0.598  0.00  0.00    -0.184 NA
ATOM      4  N2  <0> d           1.074  -4.119  -1.812  0.00  0.00    -0.262 N 
ATOM      5  H1  <0> d           1.379  -4.879  -2.332  0.00  0.00     0.191 HD
ATOM      6  C5  <0> d           1.240  -2.822  -2.138  0.00  0.00     0.133 A 
ATOM      7  H5  <0> d          -0.393  -2.719   0.729  0.00  0.00     0.119 H 
ENDROOT
BRANCH   1   8
ATOM      8  C2  <0> d           0.601  -0.602  -1.048  0.00  0.00     0.298 C 
ATOM      9  O2  <0> d           1.094   0.071  -1.932  0.00  0.00    -0.259 OA
BRANCH   8  10
ATOM     10  O1  <0> d           0.002  -0.004   0.002  0.00  0.00    -0.322 OA
BRANCH  10  11
ATOM     11  C1  <0> d          -0.017   1.425   0.010  0.00  0.00     0.013 C 
ATOM     12  H2  <0> d           1.005   1.802   0.002  0.00  0.00     0.067 H 
ATOM     13  H3  <0> d          -0.544   1.786  -0.873  0.00  0.00     0.067 H 
ATOM     14  H4  <0> d          -0.527   1.776   0.907  0.00  0.00     0.067 H 
ENDBRANCH  10  11
ENDBRANCH   8  10
ENDBRANCH   1   8
BRANCH   6  15
ATOM     15  N3  <0> d           1.871  -2.335  -3.265  0.00  0.00    -0.384 N 
ATOM     16  H6  <0> d           1.940  -1.378  -3.406  0.00  0.00     0.157 HD
ATOM     17  H7  <0> d           2.245  -2.950  -3.915  0.00  0.00     0.157 HD
ENDBRANCH   6  15
TORSDOF 4
