REMARK  1 active torsions:
REMARK  status: ('A' for Active; 'I' for Inactive)
REMARK    1  A    between atoms: C4_5  and  C5_6 
ROOT
ATOM      1  C1  <0> d           2.228   1.036  -0.014  0.00  0.00    -0.062 A 
ATOM      2  C2  <0> d           1.772  -0.237  -0.016  0.00  0.00    -0.044 A 
ATOM      3  S1  <0> d           0.002  -0.004   0.002  0.00  0.00    -0.113 SA
ATOM      4  C3  <0> d          -0.022   1.781   0.012  0.00  0.00    -0.031 A 
ATOM      5  C4  <0> d           1.311   2.082   0.001  0.00  0.00     0.022 A 
ATOM      6  H1  <0> d           3.289   1.238  -0.022  0.00  0.00     0.085 H 
ATOM      7  H2  <0> d           2.334  -1.159  -0.027  0.00  0.00     0.095 H 
ATOM      8  H3  <0> d          -0.870   2.449   0.020  0.00  0.00     0.096 H 
ENDROOT
BRANCH   5   9
ATOM      9  C5  <0> d           1.770   3.494   0.003  0.00  0.00     0.207 A 
ATOM     10  N3  <0> d           3.039   3.913  -0.007  0.00  0.00    -0.106 NA
ATOM     11  N2  <0> d           3.074   5.199  -0.001  0.00  0.00    -0.021 NA
ATOM     12  N4  <0> d           1.876   5.652   0.014  0.00  0.00    -0.021 NA
ATOM     13  N1  <0> d           1.000   4.566   0.011  0.00  0.00    -0.106 NA
ENDBRANCH   5   9
TORSDOF 1
