REMARK  4 active torsions:
REMARK  status: ('A' for Active; 'I' for Inactive)
REMARK    1  A    between atoms: C1_1  and  N1_2 
REMARK    2  A    between atoms: C2_3  and  C3_7 
REMARK    3  A    between atoms: C3_7  and  C4_8 
REMARK    4  A    between atoms: C4_8  and  O1_9 
ROOT
ATOM      1  N1  <0> d           1.000   1.704   3.138  0.00  0.00    -0.239 N 
ATOM      2  C2  <0> d           0.000   1.080   2.488  0.00  0.00     0.149 A 
ATOM      3  N2  <0> d          -0.221  -0.043   3.126  0.00  0.00    -0.114 NA
ATOM      4  N3  <0> d           0.606  -0.110   4.112  0.00  0.00    -0.023 NA
ATOM      5  N4  <0> d           1.343   0.946   4.124  0.00  0.00    -0.045 NA
ENDROOT
BRANCH   2   6
ATOM      6  C3  <0> d          -0.729   1.579   1.267  0.00  0.00     0.013 C 
ATOM      7  H4  <0> d          -0.744   2.669   1.273  0.00  0.00     0.048 H 
ATOM      8  H5  <0> d          -1.751   1.202   1.275  0.00  0.00     0.048 H 
BRANCH   6   9
ATOM      9  C4  <0> d          -0.013   1.086   0.008  0.00  0.00     0.023 C 
ATOM     10  H6  <0> d           0.002  -0.004   0.002  0.00  0.00     0.074 H 
ATOM     11  H7  <0> d           1.010   1.463   0.000  0.00  0.00     0.074 H 
BRANCH   9  12
ATOM     12  O1  <0> d          -0.704   1.559  -1.150  0.00  0.00    -0.400 OA
ATOM     13  H8  <0> d          -0.304   1.284  -1.986  0.00  0.00     0.209 HD
ENDBRANCH   9  12
ENDBRANCH   6   9
ENDBRANCH   2   6
BRANCH   1  14
ATOM     14  C1  <0> d           1.588   3.000   2.791  0.00  0.00     0.006 C 
ATOM     15  H1  <0> d           1.048   3.794   3.307  0.00  0.00     0.059 H 
ATOM     16  H2  <0> d           2.635   3.017   3.094  0.00  0.00     0.059 H 
ATOM     17  H3  <0> d           1.518   3.154   1.714  0.00  0.00     0.059 H 
ENDBRANCH   1  14
TORSDOF 4
