REMARK  3 active torsions:
REMARK  status: ('A' for Active; 'I' for Inactive)
REMARK    1  A    between atoms: C1_1  and  C2_2 
REMARK    2  A    between atoms: C3_3  and  C6_8 
REMARK    3  A    between atoms: N1_5  and  C5_7 
ROOT
ATOM      1  C2  <0> d           2.407   3.857  -0.000  0.00  0.00     0.069 A 
ATOM      2  C3  <0> d           1.238   3.063   0.007  0.00  0.00     0.083 A 
ATOM      3  C4  <0> d           0.160   3.925   0.016  0.00  0.00     0.017 A 
ATOM      4  N1  <0> d           0.646   5.176   0.024  0.00  0.00    -0.284 N 
ATOM      5  N2  <0> d           2.043   5.110   0.010  0.00  0.00    -0.177 NA
ATOM      6  H4  <0> d          -0.883   3.645   0.018  0.00  0.00     0.115 H 
ENDROOT
BRANCH   1   7
ATOM      7  C1  <0> d           3.825   3.347  -0.017  0.00  0.00    -0.033 C 
ATOM      8  H1  <0> d           4.157   3.229  -1.048  0.00  0.00     0.035 H 
ATOM      9  H2  <0> d           4.473   4.058   0.495  0.00  0.00     0.035 H 
ATOM     10  H3  <0> d           3.870   2.384   0.492  0.00  0.00     0.035 H 
ENDBRANCH   1   7
BRANCH   2  11
ATOM     11  C6  <0> d           1.181   1.591  -0.001  0.00  0.00     0.212 C 
ATOM     12  O1  <0> d           2.209   0.943  -0.014  0.00  0.00    -0.644 OA
ATOM     13  O2  <0> d          -0.011   0.963   0.007  0.00  0.00    -0.644 OA
ENDBRANCH   2  11
BRANCH   4  14
ATOM     14  C5  <0> d          -0.152   6.405   0.038  0.00  0.00     0.002 C 
ATOM     15  H5  <0> d          -0.360   6.715  -0.986  0.00  0.00     0.059 H 
ATOM     16  H6  <0> d          -1.091   6.221   0.560  0.00  0.00     0.059 H 
ATOM     17  H7  <0> d           0.401   7.191   0.551  0.00  0.00     0.059 H 
ENDBRANCH   4  14
TORSDOF 3
