REMARK  6 active torsions:
REMARK  status: ('A' for Active; 'I' for Inactive)
REMARK    1  A    between atoms: C1_1  and  C2_2 
REMARK    2  A    between atoms: C2_2  and  C3_3 
REMARK    3  A    between atoms: C3_3  and  C4_4 
REMARK    4  A    between atoms: C4_4  and  C5_6 
REMARK    5  A    between atoms: C4_4  and  O1_8 
REMARK    6  A    between atoms: C5_6  and  C6_7 
ROOT
ATOM      1  C4  <0> d          -0.729   1.579   1.267  0.00  0.00     0.035 C 
ATOM      2  H1  <0> d          -1.776   1.277   1.232  0.00  0.00     0.082 H 
ENDROOT
BRANCH   1   3
ATOM      3  C3  <0> d          -0.064   0.971   2.503  0.00  0.00    -0.041 C 
ATOM      4  H7  <0> d          -0.047  -0.115   2.410  0.00  0.00     0.036 H 
ATOM      5  H8  <0> d           0.957   1.344   2.587  0.00  0.00     0.036 H 
BRANCH   3   6
ATOM      6  C2  <0> d          -0.855   1.364   3.753  0.00  0.00    -0.066 C 
ATOM      7  H5  <0> d          -0.871   2.450   3.846  0.00  0.00     0.032 H 
ATOM      8  H6  <0> d          -1.875   0.991   3.669  0.00  0.00     0.032 H 
BRANCH   6   9
ATOM      9  C1  <0> d          -0.190   0.756   4.989  0.00  0.00    -0.076 C 
ATOM     10  H2  <0> d          -0.173  -0.330   4.896  0.00  0.00     0.027 H 
ATOM     11  H3  <0> d           0.831   1.129   5.073  0.00  0.00     0.027 H 
ATOM     12  H4  <0> d          -0.753   1.036   5.880  0.00  0.00     0.027 H 
ENDBRANCH   6   9
ENDBRANCH   3   6
ENDBRANCH   1   3
BRANCH   1  13
ATOM     13  C5  <0> d          -0.013   1.086   0.008  0.00  0.00    -0.044 C 
ATOM     14  H9  <0> d           0.002  -0.004   0.002  0.00  0.00     0.036 H 
ATOM     15  H10 <0> d           1.010   1.463   0.000  0.00  0.00     0.036 H 
BRANCH  13  16
ATOM     16  C6  <0> d          -0.753   1.593  -1.232  0.00  0.00    -0.074 C 
ATOM     17  H11 <0> d          -0.767   2.683  -1.226  0.00  0.00     0.027 H 
ATOM     18  H12 <0> d          -0.242   1.241  -2.128  0.00  0.00     0.027 H 
ATOM     19  H13 <0> d          -1.775   1.215  -1.224  0.00  0.00     0.027 H 
ENDBRANCH  13  16
ENDBRANCH   1  13
BRANCH   1  20
ATOM     20  O1  <0> d          -0.647   3.004   1.334  0.00  0.00    -0.396 OA
ATOM     21  H14 <0> d           0.258   3.345   1.368  0.00  0.00     0.210 HD
ENDBRANCH   1  20
TORSDOF 6
