REMARK  3 active torsions:
REMARK  status: ('A' for Active; 'I' for Inactive)
REMARK    1  A    between atoms: C1_1  and  C2_2 
REMARK       I    between atoms: C2_2  and  N1_4 
REMARK    2  A    between atoms: N1_4  and  C3_5 
REMARK    3  A    between atoms: C7_9  and  C9_11 
ROOT
ATOM      1  C9  <0> d          -2.445   1.035  -0.356  0.00  0.00    -0.078 C 
ATOM      2  C10 <0> d          -3.445   0.439  -0.507  0.00  0.00    -0.149 C 
ATOM      3  H9  <0> d          -4.340  -0.094  -0.641  0.00  0.00     0.166 H 
ENDROOT
BRANCH   1   4
ATOM      4  C7  <0> d          -1.224   1.761  -0.172  0.00  0.00     0.019 A 
ATOM      5  C6  <0> d          -0.020   1.076  -0.005  0.00  0.00    -0.065 A 
ATOM      6  C5  <0> d           1.155   1.778   0.166  0.00  0.00    -0.079 A 
ATOM      7  H7  <0> d          -0.008  -0.004  -0.014  0.00  0.00     0.085 H 
ATOM      8  C4  <0> d           1.145   3.160   0.178  0.00  0.00    -0.057 A 
ATOM      9  H6  <0> d           2.087   1.246   0.291  0.00  0.00     0.083 H 
ATOM     10  C3  <0> d          -0.051   3.852   0.018  0.00  0.00     0.036 A 
ATOM     11  H5  <0> d           2.068   3.705   0.312  0.00  0.00     0.086 H 
ATOM     12  C8  <0> d          -1.236   3.155  -0.154  0.00  0.00    -0.039 A 
ATOM     13  H8  <0> d          -2.166   3.691  -0.279  0.00  0.00     0.089 H 
BRANCH  10  14
ATOM     14  N1  <0> d          -0.056   5.251   0.031  0.00  0.00    -0.327 N 
ATOM     15  C2  <0> d          -1.114   5.916   0.538  0.00  0.00     0.218 C 
ATOM     16  O1  <0> d          -2.017   5.304   1.069  0.00  0.00    -0.274 OA
ATOM     17  H4  <0> d           0.700   5.743  -0.324  0.00  0.00     0.169 HD
BRANCH  15  18
ATOM     18  C1  <0> d          -1.174   7.419   0.446  0.00  0.00    -0.003 C 
ATOM     19  H1  <0> d          -1.152   7.719  -0.602  0.00  0.00     0.040 H 
ATOM     20  H2  <0> d          -2.096   7.774   0.906  0.00  0.00     0.040 H 
ATOM     21  H3  <0> d          -0.318   7.849   0.965  0.00  0.00     0.040 H 
ENDBRANCH  15  18
ENDBRANCH  10  14
ENDBRANCH   1   4
TORSDOF 3
