REMARK  1 active torsions:
REMARK  status: ('A' for Active; 'I' for Inactive)
REMARK    1  A    between atoms: C6_6  and  O1_7 
ROOT
ATOM      1  C1  <0> d          -0.017   1.382   0.010  0.00  0.00    -0.048 A 
ATOM      2  C2  <0> d           1.171   2.087   0.002  0.00  0.00    -0.043 A 
ATOM      3  C3  <0> d           2.377   1.409  -0.013  0.00  0.00     0.123 A 
ATOM      4  C4  <0> d           2.400   0.021  -0.021  0.00  0.00    -0.011 A 
ATOM      5  C5  <0> d           1.213  -0.686  -0.014  0.00  0.00    -0.016 A 
ATOM      6  C6  <0> d           0.002  -0.004   0.002  0.00  0.00     0.072 A 
ATOM      7  C7  <0> d           1.502  -2.171  -0.026  0.00  0.00    -0.037 C 
ATOM      8  C8  <0> d           2.972  -2.293  -0.481  0.00  0.00    -0.058 C 
ATOM      9  C9  <0> d           3.568  -0.940  -0.038  0.00  0.00    -0.037 C 
ATOM     10  F1  <0> d           3.538   2.100  -0.020  0.00  0.00    -0.206 F 
ATOM     11  H1  <0> d          -0.959   1.910   0.026  0.00  0.00     0.087 H 
ATOM     12  H2  <0> d           1.159   3.167   0.008  0.00  0.00     0.088 H 
ATOM     13  H4  <0> d           1.380  -2.589   0.974  0.00  0.00     0.040 H 
ATOM     14  H5  <0> d           0.844  -2.679  -0.731  0.00  0.00     0.040 H 
ATOM     15  H6  <0> d           3.468  -3.120   0.027  0.00  0.00     0.033 H 
ATOM     16  H7  <0> d           3.034  -2.409  -1.563  0.00  0.00     0.033 H 
ATOM     17  H8  <0> d           4.322  -0.607  -0.752  0.00  0.00     0.040 H 
ATOM     18  H9  <0> d           4.002  -1.026   0.958  0.00  0.00     0.040 H 
ENDROOT
BRANCH   6  19
ATOM     19  O1  <0> d          -1.167  -0.698   0.010  0.00  0.00    -0.360 OA
ATOM     20  H3  <0> d          -1.514  -0.894  -0.871  0.00  0.00     0.217 HD
ENDBRANCH   6  19
TORSDOF 1
