REMARK  1 active torsions:
REMARK  status: ('A' for Active; 'I' for Inactive)
REMARK    1  A    between atoms: C4_6  and  C5_8 
ROOT
ATOM      1  C1  <0> d          -0.019   1.541   0.011  0.00  0.00    -0.036 C 
ATOM      2  C2  <0> d           1.490   1.876  -0.002  0.00  0.00     0.011 C 
ATOM      3  C3  <0> d           2.147   0.654   0.600  0.00  0.00     0.218 C 
ATOM      4  O1  <0> d           3.282   0.614   1.026  0.00  0.00    -0.274 OA
ATOM      5  N1  <0> d           1.290  -0.381   0.595  0.00  0.00    -0.354 N 
ATOM      6  C4  <0> d           0.002  -0.004   0.002  0.00  0.00     0.037 C 
ATOM      7  H1  <0> d          -0.819  -0.396   0.603  0.00  0.00     0.076 H 
ATOM      8  H2  <0> d          -0.495   1.919   0.915  0.00  0.00     0.036 H 
ATOM      9  H3  <0> d          -0.512   1.929  -0.880  0.00  0.00     0.036 H 
ATOM     10  H4  <0> d           1.838   2.032  -1.023  0.00  0.00     0.047 H 
ATOM     11  H5  <0> d           1.690   2.757   0.609  0.00  0.00     0.047 H 
ATOM     12  H6  <0> d           1.497  -1.265   0.939  0.00  0.00     0.162 HD
ENDROOT
BRANCH   6  13
ATOM     13  C5  <0> d          -0.094  -0.527  -1.433  0.00  0.00     0.077 C 
ATOM     14  F1  <0> d          -0.074  -1.926  -1.421  0.00  0.00    -0.253 F 
ATOM     15  H7  <0> d          -1.024  -0.181  -1.884  0.00  0.00     0.085 H 
ATOM     16  H8  <0> d           0.751  -0.156  -2.012  0.00  0.00     0.085 H 
ENDBRANCH   6  13
TORSDOF 1
