REMARK  3 active torsions:
REMARK  status: ('A' for Active; 'I' for Inactive)
REMARK    1  A    between atoms: C1_1  and  C2_2 
REMARK    2  A    between atoms: C2_2  and  C3_4 
REMARK    3  A    between atoms: C3_4  and  C8_9 
ROOT
ATOM      1  C3  <0> d          -0.019   1.526   0.010  0.00  0.00     0.016 C 
ATOM      2  C4  <0> d          -0.769   2.037   1.258  0.00  0.00    -0.052 C 
ATOM      3  C5  <0> d          -1.537   3.285   0.753  0.00  0.00    -0.064 C 
ATOM      4  C6  <0> d          -1.984   2.860  -0.668  0.00  0.00    -0.064 C 
ATOM      5  C7  <0> d          -0.790   2.049  -1.214  0.00  0.00    -0.052 C 
ATOM      6  H4  <0> d          -1.449   1.254   1.623  0.00  0.00     0.034 H 
ATOM      7  H5  <0> d          -0.043   2.289   2.045  0.00  0.00     0.034 H 
ATOM      8  H6  <0> d          -2.386   3.488   1.422  0.00  0.00     0.033 H 
ATOM      9  H7  <0> d          -0.861   4.153   0.744  0.00  0.00     0.033 H 
ATOM     10  H8  <0> d          -2.898   2.253  -0.599  0.00  0.00     0.033 H 
ATOM     11  H9  <0> d          -2.184   3.757  -1.273  0.00  0.00     0.033 H 
ATOM     12  H10 <0> d          -0.129   2.685  -1.820  0.00  0.00     0.034 H 
ATOM     13  H11 <0> d          -1.138   1.199  -1.819  0.00  0.00     0.034 H 
ENDROOT
BRANCH   1  14
ATOM     14  C2  <0> d           1.390   2.061  -0.000  0.00  0.00     0.131 C 
ATOM     15  O1  <0> d           1.756   2.779  -0.899  0.00  0.00    -0.298 OA
BRANCH  14  16
ATOM     16  C1  <0> d           2.342   1.699   1.111  0.00  0.00    -0.020 C 
ATOM     17  H1  <0> d           1.832   1.043   1.831  0.00  0.00     0.037 H 
ATOM     18  H2  <0> d           2.674   2.615   1.621  0.00  0.00     0.037 H 
ATOM     19  H3  <0> d           3.214   1.176   0.692  0.00  0.00     0.037 H 
ENDBRANCH  14  16
ENDBRANCH   1  14
BRANCH   1  20
ATOM     20  C8  <0> d           0.002  -0.004   0.002  0.00  0.00    -0.062 C 
ATOM     21  H12 <0> d          -1.030  -0.385   0.010  0.00  0.00     0.029 H 
ATOM     22  H13 <0> d           0.534  -0.368   0.893  0.00  0.00     0.029 H 
ATOM     23  H14 <0> d           0.517  -0.359  -0.903  0.00  0.00     0.029 H 
ENDBRANCH   1  20
TORSDOF 3
