REMARK  2 active torsions:
REMARK  status: ('A' for Active; 'I' for Inactive)
REMARK    1  A    between atoms: C1_1  and  O1_2 
REMARK    2  A    between atoms: O1_2  and  C2_3 
ROOT
ATOM      1  C2  <0> d           2.400   0.026  -0.021  0.00  0.00     0.109 A 
ATOM      2  C3  <0> d           1.206  -0.681  -0.013  0.00  0.00    -0.048 A 
ATOM      3  C4  <0> d           0.002  -0.004   0.002  0.00  0.00    -0.077 A 
ATOM      4  C5  <0> d          -0.017   1.378   0.010  0.00  0.00    -0.042 A 
ATOM      5  C6  <0> d           1.172   2.089   0.002  0.00  0.00     0.157 A 
ATOM      6  C7  <0> d           2.382   1.414  -0.013  0.00  0.00     0.188 A 
ATOM      7  F1  <0> d           3.542   2.106  -0.022  0.00  0.00    -0.200 F 
ATOM      8  F2  <0> d           1.151   3.440   0.009  0.00  0.00    -0.203 F 
ATOM      9  H4  <0> d           1.219  -1.761  -0.018  0.00  0.00     0.087 H 
ATOM     10  H5  <0> d          -0.926  -0.556   0.008  0.00  0.00     0.083 H 
ATOM     11  H6  <0> d          -0.960   1.905   0.017  0.00  0.00     0.088 H 
ENDROOT
BRANCH   1  12
ATOM     12  O1  <0> d           3.585  -0.639  -0.035  0.00  0.00    -0.353 OA
BRANCH  12  13
ATOM     13  C1  <0> d           3.528  -2.067  -0.041  0.00  0.00     0.011 C 
ATOM     14  H1  <0> d           3.009  -2.414   0.852  0.00  0.00     0.066 H 
ATOM     15  H2  <0> d           2.991  -2.405  -0.928  0.00  0.00     0.066 H 
ATOM     16  H3  <0> d           4.540  -2.471  -0.053  0.00  0.00     0.066 H 
ENDBRANCH  12  13
ENDBRANCH   1  12
TORSDOF 2
