REMARK  1 active torsions:
REMARK  status: ('A' for Active; 'I' for Inactive)
REMARK    1  A    between atoms: C4_6  and  C5_7 
ROOT
ATOM      1  C1  <0> d          -2.509   1.221   0.021  0.00  0.00    -0.043 A 
ATOM      2  C2  <0> d          -3.692   1.945   0.031  0.00  0.00    -0.040 A 
ATOM      3  C3  <0> d          -3.610   3.330   0.038  0.00  0.00     0.148 A 
ATOM      4  N1  <0> d          -2.427   3.924   0.036  0.00  0.00    -0.137 NA
ATOM      5  N2  <0> d          -1.328   3.261   0.032  0.00  0.00    -0.142 NA
ATOM      6  C4  <0> d          -1.306   1.933   0.019  0.00  0.00     0.155 A 
ATOM      7 Cl1  <0> d          -5.059   4.285   0.050  0.00  0.00    -0.061 Cl
ATOM      8  H1  <0> d          -2.517   0.141   0.014  0.00  0.00     0.087 H 
ATOM      9  H2  <0> d          -4.650   1.446   0.033  0.00  0.00     0.088 H 
ENDROOT
BRANCH   6  10
ATOM     10  C5  <0> d          -0.014   1.210   0.009  0.00  0.00     0.230 C 
ATOM     11  O1  <0> d           0.002  -0.004   0.002  0.00  0.00    -0.643 OA
ATOM     12  O2  <0> d           1.143   1.899   0.001  0.00  0.00    -0.643 OA
ENDBRANCH   6  10
TORSDOF 1
