REMARK  8 active torsions:
REMARK  status: ('A' for Active; 'I' for Inactive)
REMARK    1  A    between atoms: C1_1  and  C2_2 
REMARK    2  A    between atoms: C2_2  and  C3_4 
REMARK    3  A    between atoms: C2_2  and  O3_7 
REMARK    4  A    between atoms: O3_7  and  C4_8 
REMARK    5  A    between atoms: C4_8  and  C5_9 
REMARK    6  A    between atoms: C5_9  and  C6_10 
REMARK    7  A    between atoms: C6_10  and  C7_11 
REMARK    8  A    between atoms: C6_10  and  C8_12 
ROOT
ATOM      1  C4  <0> d          -1.896  -0.693  -1.289  0.00  0.00     0.021 C 
ATOM      2  H5  <0> d          -1.908   0.256  -1.825  0.00  0.00     0.074 H 
ATOM      3  H6  <0> d          -1.292  -1.414  -1.840  0.00  0.00     0.074 H 
ENDROOT
BRANCH   1   4
ATOM      4  O3  <0> d          -1.339  -0.499   0.012  0.00  0.00    -0.376 OA
BRANCH   4   5
ATOM      5  C2  <0> d           0.002  -0.004   0.002  0.00  0.00     0.118 C 
ATOM      6  H1  <0> d           0.512  -0.356  -0.895  0.00  0.00     0.099 H 
BRANCH   5   7
ATOM      7  C1  <0> d          -0.019   1.526   0.010  0.00  0.00    -0.043 C 
ATOM      8  H2  <0> d           1.004   1.903   0.003  0.00  0.00     0.031 H 
ATOM      9  H3  <0> d          -0.546   1.887  -0.873  0.00  0.00     0.031 H 
ATOM     10  H4  <0> d          -0.529   1.877   0.907  0.00  0.00     0.031 H 
ENDBRANCH   5   7
BRANCH   5  11
ATOM     11  C3  <0> d           0.731  -0.503   1.223  0.00  0.00     0.202 C 
ATOM     12  O1  <0> d           0.132  -1.140   2.073  0.00  0.00    -0.646 OA
ATOM     13  O2  <0> d           1.920  -0.270   1.361  0.00  0.00    -0.646 OA
ENDBRANCH   5  11
ENDBRANCH   4   5
ENDBRANCH   1   4
BRANCH   1  14
ATOM     14  C5  <0> d          -3.326  -1.221  -1.157  0.00  0.00    -0.043 C 
ATOM     15  H7  <0> d          -3.315  -2.171  -0.622  0.00  0.00     0.036 H 
ATOM     16  H8  <0> d          -3.931  -0.501  -0.607  0.00  0.00     0.036 H 
BRANCH  14  17
ATOM     17  C6  <0> d          -3.923  -1.429  -2.551  0.00  0.00    -0.059 C 
ATOM     18  H9  <0> d          -3.271  -2.081  -3.132  0.00  0.00     0.038 H 
BRANCH  17  19
ATOM     19  C7  <0> d          -5.305  -2.074  -2.422  0.00  0.00    -0.073 C 
ATOM     20  H10 <0> d          -5.957  -1.423  -1.841  0.00  0.00     0.028 H 
ATOM     21  H11 <0> d          -5.730  -2.222  -3.415  0.00  0.00     0.028 H 
ATOM     22  H12 <0> d          -5.211  -3.037  -1.920  0.00  0.00     0.028 H 
ENDBRANCH  17  19
BRANCH  17  23
ATOM     23  C8  <0> d          -4.055  -0.078  -3.256  0.00  0.00    -0.073 C 
ATOM     24  H13 <0> d          -4.480  -0.226  -4.249  0.00  0.00     0.028 H 
ATOM     25  H14 <0> d          -4.707   0.573  -2.675  0.00  0.00     0.028 H 
ATOM     26  H15 <0> d          -3.070   0.381  -3.348  0.00  0.00     0.028 H 
ENDBRANCH  17  23
ENDBRANCH  14  17
ENDBRANCH   1  14
TORSDOF 8
