REMARK  4 active torsions:
REMARK  status: ('A' for Active; 'I' for Inactive)
REMARK    1  A    between atoms: C1_1  and  C2_2 
REMARK    2  A    between atoms: C2_2  and  C3_4 
REMARK    3  A    between atoms: C2_2  and  O2_13 
REMARK    4  A    between atoms: C8_10  and  O1_12 
ROOT
ATOM      1  C3  <0> d          -0.753   1.593  -1.232  0.00  0.00    -0.005 C 
ATOM      2  H2  <0> d          -1.775   1.215  -1.224  0.00  0.00     0.047 H 
ATOM      3  C4  <0> d          -0.013   1.086   0.008  0.00  0.00    -0.057 C 
ATOM      4  C5  <0> d          -0.729   1.579   1.267  0.00  0.00    -0.064 C 
ATOM      5  C6  <0> d          -0.750   3.109   1.275  0.00  0.00    -0.063 C 
ATOM      6  C7  <0> d          -1.490   3.616   0.036  0.00  0.00    -0.041 C 
ATOM      7  C8  <0> d          -0.773   3.123  -1.223  0.00  0.00     0.041 C 
ATOM      8  H3  <0> d           0.249   3.500  -1.231  0.00  0.00     0.083 H 
ATOM      9  H7  <0> d           0.002  -0.004   0.002  0.00  0.00     0.033 H 
ATOM     10  H8  <0> d           1.010   1.463   0.000  0.00  0.00     0.033 H 
ATOM     11  H9  <0> d          -1.751   1.202   1.275  0.00  0.00     0.033 H 
ATOM     12  H10 <0> d          -0.202   1.218   2.150  0.00  0.00     0.033 H 
ATOM     13  H11 <0> d           0.273   3.486   1.268  0.00  0.00     0.033 H 
ATOM     14  H12 <0> d          -1.260   3.461   2.172  0.00  0.00     0.033 H 
ATOM     15  H13 <0> d          -1.504   4.706   0.042  0.00  0.00     0.036 H 
ATOM     16  H14 <0> d          -2.512   3.239   0.043  0.00  0.00     0.036 H 
ENDROOT
BRANCH   1  17
ATOM     17  C2  <0> d          -0.037   1.099  -2.490  0.00  0.00     0.038 C 
ATOM     18  H1  <0> d           0.986   1.476  -2.498  0.00  0.00     0.083 H 
BRANCH  17  19
ATOM     19  C1  <0> d          -0.016  -0.431  -2.499  0.00  0.00    -0.052 C 
ATOM     20  H4  <0> d          -1.038  -0.808  -2.491  0.00  0.00     0.030 H 
ATOM     21  H5  <0> d           0.494  -0.782  -3.396  0.00  0.00     0.030 H 
ATOM     22  H6  <0> d           0.511  -0.792  -1.616  0.00  0.00     0.030 H 
ENDBRANCH  17  19
BRANCH  17  23
ATOM     23  O2  <0> d          -0.728   1.573  -3.648  0.00  0.00    -0.395 OA
ATOM     24  H16 <0> d          -1.646   1.275  -3.707  0.00  0.00     0.210 HD
ENDBRANCH  17  23
ENDBRANCH   1  17
BRANCH   7  25
ATOM     25  O1  <0> d          -1.465   3.596  -2.381  0.00  0.00    -0.395 OA
ATOM     26  H15 <0> d          -1.516   4.560  -2.441  0.00  0.00     0.210 HD
ENDBRANCH   7  25
TORSDOF 4
