REMARK  6 active torsions:
REMARK  status: ('A' for Active; 'I' for Inactive)
REMARK    1  A    between atoms: C1_1  and  C2_2 
REMARK    2  A    between atoms: C2_2  and  O2_4 
REMARK    3  A    between atoms: O2_4  and  C3_5 
REMARK    4  A    between atoms: C5_8  and  C6_10 
REMARK    5  A    between atoms: C6_10  and  O4_12 
REMARK    6  A    between atoms: O4_12  and  C7_13 
ROOT
ATOM      1  C3  <0> d          -1.576   4.965   2.704  0.00  0.00     0.061 A 
ATOM      2  H1  <0> d          -2.474   5.382   3.159  0.00  0.00     0.085 H 
ATOM      3  C4  <0> d          -0.627   4.176   3.608  0.00  0.00    -0.025 A 
ATOM      4  C5  <0> d          -1.489   3.443   2.579  0.00  0.00     0.058 A 
ATOM      5  H2  <0> d          -2.330   2.858   2.952  0.00  0.00     0.059 H 
ATOM      6  H6  <0> d          -0.901   4.074   4.658  0.00  0.00     0.038 H 
ATOM      7  H7  <0> d           0.441   4.254   3.406  0.00  0.00     0.038 H 
ENDROOT
BRANCH   1   8
ATOM      8  O2  <0> d          -0.985   5.760   1.642  0.00  0.00    -0.315 OA
BRANCH   8   9
ATOM      9  C2  <0> d          -1.544   6.955   1.392  0.00  0.00     0.255 C 
ATOM     10  O1  <0> d          -2.495   7.324   2.039  0.00  0.00    -0.266 OA
BRANCH   9  11
ATOM     11  C1  <0> d          -0.984   7.835   0.304  0.00  0.00     0.004 C 
ATOM     12  H3  <0> d          -0.135   7.338  -0.165  0.00  0.00     0.041 H 
ATOM     13  H4  <0> d          -1.754   8.022  -0.444  0.00  0.00     0.041 H 
ATOM     14  H5  <0> d          -0.658   8.781   0.735  0.00  0.00     0.041 H 
ENDBRANCH   9  11
ENDBRANCH   8   9
ENDBRANCH   1   8
BRANCH   4  15
ATOM     15  C6  <0> d          -0.797   2.883   1.363  0.00  0.00     0.265 C 
ATOM     16  O3  <0> d          -0.336   3.630   0.533  0.00  0.00    -0.265 OA
BRANCH  15  17
ATOM     17  O4  <0> d          -0.692   1.554   1.203  0.00  0.00    -0.326 OA
BRANCH  17  18
ATOM     18  C7  <0> d          -0.013   1.086   0.008  0.00  0.00     0.013 C 
ATOM     19  H8  <0> d           0.002  -0.004   0.002  0.00  0.00     0.067 H 
ATOM     20  H9  <0> d           1.010   1.463   0.000  0.00  0.00     0.067 H 
ATOM     21  H10 <0> d          -0.540   1.447  -0.875  0.00  0.00     0.067 H 
ENDBRANCH  17  18
ENDBRANCH  15  17
ENDBRANCH   4  15
TORSDOF 6
