REMARK  2 active torsions:
REMARK  status: ('A' for Active; 'I' for Inactive)
REMARK    1  A    between atoms: C1_1  and  C2_2 
REMARK    2  A    between atoms: C7_7  and  N1_8 
ROOT
ATOM      1  C2  <0> d           1.169   3.179   0.008  0.00  0.00    -0.034 A 
ATOM      2  C3  <0> d          -0.029   3.856   0.023  0.00  0.00    -0.055 A 
ATOM      3  C4  <0> d          -1.232   3.145   0.031  0.00  0.00     0.045 A 
ATOM      4  C5  <0> d          -1.214   1.747   0.017  0.00  0.00    -0.061 A 
ATOM      5  C6  <0> d          -0.013   1.076   0.008  0.00  0.00    -0.056 A 
ATOM      6  C7  <0> d           1.184   1.787   0.000  0.00  0.00     0.031 A 
ATOM      7  C8  <0> d          -2.480   3.846   0.046  0.00  0.00     0.099 C 
ATOM      8  N2  <0> d          -3.471   4.403   0.058  0.00  0.00    -0.191 NA
ATOM      9  H4  <0> d          -0.039   4.936   0.029  0.00  0.00     0.086 H 
ATOM     10  H5  <0> d          -2.142   1.194   0.018  0.00  0.00     0.085 H 
ATOM     11  H6  <0> d           0.002  -0.004   0.002  0.00  0.00     0.087 H 
ENDROOT
BRANCH   1  12
ATOM     12  C1  <0> d           2.467   3.945   0.000  0.00  0.00    -0.049 C 
ATOM     13  H1  <0> d           2.771   4.135  -1.029  0.00  0.00     0.033 H 
ATOM     14  H2  <0> d           2.333   4.893   0.520  0.00  0.00     0.033 H 
ATOM     15  H3  <0> d           3.237   3.360   0.504  0.00  0.00     0.033 H 
ENDBRANCH   1  12
BRANCH   6  16
ATOM     16  N1  <0> d           2.397   1.105  -0.015  0.00  0.00    -0.399 N 
ATOM     17  H7  <0> d           2.408   0.136  -0.021  0.00  0.00     0.156 HD
ATOM     18  H8  <0> d           3.231   1.600  -0.021  0.00  0.00     0.156 HD
ENDBRANCH   6  16
TORSDOF 2
