REMARK  4 active torsions:
REMARK  status: ('A' for Active; 'I' for Inactive)
REMARK    1  A    between atoms: C1_1  and  C2_2 
REMARK    2  A    between atoms: C2_2  and  N1_3 
REMARK    3  A    between atoms: C4_5  and  N3_9 
REMARK    4  A    between atoms: C5_6  and  C6_8 
ROOT
ATOM      1  N1  <0> d          -0.704   1.998   1.216  0.00  0.00    -0.279 N 
ATOM      2  C3  <0> d          -0.200   2.861   2.137  0.00  0.00     0.025 A 
ATOM      3  C4  <0> d          -1.147   3.039   3.093  0.00  0.00     0.069 A 
ATOM      4  C5  <0> d          -2.261   2.262   2.744  0.00  0.00     0.078 A 
ATOM      5  N2  <0> d          -1.998   1.646   1.620  0.00  0.00    -0.176 NA
ATOM      6  H6  <0> d           0.777   3.321   2.114  0.00  0.00     0.117 H 
ENDROOT
BRANCH   1   7
ATOM      7  C2  <0> d          -0.019   1.526   0.010  0.00  0.00     0.013 C 
ATOM      8  H4  <0> d           1.004   1.903   0.003  0.00  0.00     0.066 H 
ATOM      9  H5  <0> d          -0.546   1.887  -0.873  0.00  0.00     0.066 H 
BRANCH   7  10
ATOM     10  C1  <0> d           0.002  -0.004   0.002  0.00  0.00    -0.059 C 
ATOM     11  H1  <0> d           0.512  -0.356  -0.895  0.00  0.00     0.029 H 
ATOM     12  H2  <0> d           0.529  -0.365   0.885  0.00  0.00     0.029 H 
ATOM     13  H3  <0> d          -1.020  -0.381   0.010  0.00  0.00     0.029 H 
ENDBRANCH   7  10
ENDBRANCH   1   7
BRANCH   4  14
ATOM     14  C6  <0> d          -3.545   2.160   3.527  0.00  0.00    -0.032 C 
ATOM     15  H7  <0> d          -4.240   2.927   3.185  0.00  0.00     0.035 H 
ATOM     16  H8  <0> d          -3.986   1.175   3.374  0.00  0.00     0.035 H 
ATOM     17  H9  <0> d          -3.337   2.305   4.587  0.00  0.00     0.035 H 
ENDBRANCH   4  14
BRANCH   3  18
ATOM     18  N3  <0> d          -1.032   3.858   4.232  0.00  0.00    -0.396 N 
ATOM     19  H10 <0> d          -0.216   4.360   4.388  0.00  0.00     0.156 HD
ATOM     20  H11 <0> d          -1.767   3.920   4.862  0.00  0.00     0.156 HD
ENDBRANCH   3  18
TORSDOF 4
