REMARK  5 active torsions:
REMARK  status: ('A' for Active; 'I' for Inactive)
REMARK    1  A    between atoms: C1_1  and  C2_2 
REMARK    2  A    between atoms: C2_2  and  C3_3 
REMARK    3  A    between atoms: C2_2  and  C4_4 
REMARK    4  A    between atoms: C5_6  and  N5_11 
REMARK    5  A    between atoms: C6_8  and  N4_10 
ROOT
ATOM      1  C4  <0> d           1.401   1.607  -0.003  0.00  0.00     0.167 A 
ATOM      2  N1  <0> d           1.623   2.910  -0.003  0.00  0.00    -0.046 NA
ATOM      3  C5  <0> d           2.870   3.375  -0.008  0.00  0.00     0.737 A 
ATOM      4  N2  <0> d           3.893   2.527  -0.022  0.00  0.00     0.129 NA
ATOM      5  C6  <0> d           3.666   1.218  -0.027  0.00  0.00     0.737 A 
ATOM      6  N3  <0> d           2.416   0.761  -0.017  0.00  0.00    -0.046 NA
ENDROOT
BRANCH   1   7
ATOM      7  C2  <0> d          -0.013   1.086   0.008  0.00  0.00    -0.000 C 
ATOM      8  H4  <0> d           0.002  -0.004   0.002  0.00  0.00     0.051 H 
BRANCH   7   9
ATOM      9  C1  <0> d          -0.753   1.593  -1.232  0.00  0.00    -0.066 C 
ATOM     10  H1  <0> d          -0.767   2.683  -1.226  0.00  0.00     0.028 H 
ATOM     11  H2  <0> d          -0.242   1.241  -2.128  0.00  0.00     0.028 H 
ATOM     12  H3  <0> d          -1.775   1.215  -1.224  0.00  0.00     0.028 H 
ENDBRANCH   7   9
BRANCH   7  13
ATOM     13  C3  <0> d          -0.729   1.579   1.267  0.00  0.00    -0.066 C 
ATOM     14  H5  <0> d          -0.744   2.669   1.273  0.00  0.00     0.028 H 
ATOM     15  H6  <0> d          -1.751   1.202   1.275  0.00  0.00     0.028 H 
ATOM     16  H7  <0> d          -0.202   1.218   2.150  0.00  0.00     0.028 H 
ENDBRANCH   7  13
ENDBRANCH   1   7
BRANCH   5  17
ATOM     17  N4  <0> d           4.725   0.333  -0.042  0.00  0.00    -0.230 N 
ATOM     18  H8  <0> d           4.558  -0.623  -0.046  0.00  0.00     0.174 HD
ATOM     19  H9  <0> d           5.636   0.667  -0.049  0.00  0.00     0.174 HD
ENDBRANCH   5  17
BRANCH   3  20
ATOM     20  N5  <0> d           3.101   4.735  -0.004  0.00  0.00    -0.230 N 
ATOM     21  H10 <0> d           4.010   5.073  -0.011  0.00  0.00     0.174 HD
ATOM     22  H11 <0> d           2.354   5.354   0.007  0.00  0.00     0.174 HD
ENDBRANCH   3  20
TORSDOF 5
