REMARK  2 active torsions:
REMARK  status: ('A' for Active; 'I' for Inactive)
REMARK    1  A    between atoms: C1_1  and  C2_2 
REMARK    2  A    between atoms: C2_2  and  C3_4 
ROOT
ATOM      1  C3  <0> d          -0.025   4.457   0.026  0.00  0.00     0.027 A 
ATOM      2  C4  <0> d          -1.253   3.778   0.034  0.00  0.00    -0.065 A 
ATOM      3  C5  <0> d          -1.238   2.397   0.021  0.00  0.00    -0.043 A 
ATOM      4  C6  <0> d          -0.021   1.732   0.012  0.00  0.00     0.125 A 
ATOM      5  N1  <0> d           1.120   2.397   0.004  0.00  0.00    -0.248 NA
ATOM      6  C7  <0> d           1.158   3.712   0.011  0.00  0.00     0.017 A 
ATOM      7 Cl1  <0> d           0.002  -0.004   0.002  0.00  0.00    -0.062 Cl
ATOM      8  H4  <0> d          -2.187   4.322   0.046  0.00  0.00     0.085 H 
ATOM      9  H5  <0> d          -2.163   1.841   0.022  0.00  0.00     0.088 H 
ATOM     10  H6  <0> d           2.111   4.221   0.005  0.00  0.00     0.116 H 
ENDROOT
BRANCH   1  11
ATOM     11  C2  <0> d           0.017   5.928   0.034  0.00  0.00     0.157 C 
ATOM     12  O1  <0> d          -1.015   6.564   0.048  0.00  0.00    -0.293 OA
BRANCH  11  13
ATOM     13  C1  <0> d           1.343   6.644   0.026  0.00  0.00    -0.017 C 
ATOM     14  H1  <0> d           1.627   6.808  -0.919  0.00  0.00     0.038 H 
ATOM     15  H2  <0> d           1.245   7.597   0.546  0.00  0.00     0.038 H 
ATOM     16  H3  <0> d           2.090   6.030   0.529  0.00  0.00     0.038 H 
ENDBRANCH  11  13
ENDBRANCH   1  11
TORSDOF 2
