REMARK  1 active torsions:
REMARK  status: ('A' for Active; 'I' for Inactive)
REMARK    1  A    between atoms: C8_9  and  O1_11 
ROOT
ATOM      1  C1  <0> d          -0.017   1.387   0.010  0.00  0.00    -0.078 A 
ATOM      2  C2  <0> d           1.139   2.107   0.003  0.00  0.00    -0.054 A 
ATOM      3  C3  <0> d           2.379   1.447  -0.013  0.00  0.00     0.069 A 
ATOM      4  C4  <0> d           2.407   0.030  -0.021  0.00  0.00     0.026 A 
ATOM      5  C5  <0> d           3.650  -0.627  -0.036  0.00  0.00    -0.067 A 
ATOM      6  C6  <0> d           4.784   0.135  -0.043  0.00  0.00    -0.065 A 
ATOM      7  C7  <0> d           4.686   1.525  -0.035  0.00  0.00     0.003 A 
ATOM      8  N1  <0> d           3.526   2.135  -0.021  0.00  0.00    -0.260 NA
ATOM      9  C8  <0> d           1.196  -0.690  -0.013  0.00  0.00     0.078 A 
ATOM     10  C9  <0> d           0.002  -0.004   0.002  0.00  0.00    -0.050 A 
ATOM     11  H1  <0> d          -0.965   1.905   0.026  0.00  0.00     0.083 H 
ATOM     12  H2  <0> d           1.102   3.187   0.008  0.00  0.00     0.087 H 
ATOM     13  H3  <0> d           3.707  -1.706  -0.042  0.00  0.00     0.085 H 
ATOM     14  H4  <0> d           5.754  -0.338  -0.054  0.00  0.00     0.085 H 
ATOM     15  H5  <0> d           5.590   2.115  -0.040  0.00  0.00     0.114 H 
ATOM     16  H6  <0> d          -0.929  -0.551   0.008  0.00  0.00     0.087 H 
ENDROOT
BRANCH   9  17
ATOM     17  O1  <0> d           1.207  -2.048  -0.021  0.00  0.00    -0.360 OA
ATOM     18  H7  <0> d           1.218  -2.446   0.860  0.00  0.00     0.217 HD
ENDBRANCH   9  17
TORSDOF 1
