REMARK  3 active torsions:
REMARK  status: ('A' for Active; 'I' for Inactive)
REMARK    1  A    between atoms: N1_3  and  C5_10 
REMARK    2  A    between atoms: C5_10  and  C6_11 
REMARK    3  A    between atoms: C6_11  and  O3_12 
ROOT
ATOM      1  C1  <0> d          -1.234   3.472   0.032  0.00  0.00    -0.002 A 
ATOM      2  C2  <0> d          -1.216   2.122   0.019  0.00  0.00    -0.011 A 
ATOM      3  N1  <0> d          -0.018   1.461   0.010  0.00  0.00    -0.308 N 
ATOM      4  C3  <0> d           1.142   2.143   0.003  0.00  0.00     0.329 A 
ATOM      5  O1  <0> d           2.195   1.535  -0.010  0.00  0.00    -0.246 OA
ATOM      6  N2  <0> d           1.153   3.489   0.009  0.00  0.00    -0.275 N 
ATOM      7  H1  <0> d           2.024   3.980   0.003  0.00  0.00     0.173 HD
ATOM      8  C4  <0> d          -0.006   4.178   0.024  0.00  0.00     0.250 A 
ATOM      9  O2  <0> d           0.003   5.396   0.030  0.00  0.00    -0.268 OA
ATOM     10  H2  <0> d          -2.172   4.007   0.044  0.00  0.00     0.094 H 
ATOM     11  H3  <0> d          -2.142   1.567   0.021  0.00  0.00     0.112 H 
ENDROOT
BRANCH   3  12
ATOM     12  C5  <0> d           0.002  -0.004   0.002  0.00  0.00     0.023 C 
ATOM     13  H4  <0> d          -0.888  -0.377  -0.505  0.00  0.00     0.068 H 
ATOM     14  H5  <0> d           0.892  -0.352  -0.522  0.00  0.00     0.068 H 
BRANCH  12  15
ATOM     15  C6  <0> d           0.023  -0.522   1.442  0.00  0.00     0.032 C 
ATOM     16  H6  <0> d           0.127  -1.607   1.436  0.00  0.00     0.076 H 
ATOM     17  H7  <0> d           0.864  -0.079   1.975  0.00  0.00     0.076 H 
BRANCH  15  18
ATOM     18  O3  <0> d          -1.197  -0.164   2.094  0.00  0.00    -0.399 OA
ATOM     19  H8  <0> d          -1.254  -0.461   3.013  0.00  0.00     0.209 HD
ENDBRANCH  15  18
ENDBRANCH  12  15
ENDBRANCH   3  12
TORSDOF 3
