REMARK  1 active torsions:
REMARK  status: ('A' for Active; 'I' for Inactive)
REMARK    1  A    between atoms: C7_9  and  O1_11 
ROOT
ATOM      1  C1  <0> d           1.206  -0.694  -0.013  0.00  0.00    -0.079 A 
ATOM      2  C2  <0> d           2.394  -0.019  -0.020  0.00  0.00    -0.071 A 
ATOM      3  C3  <0> d           2.400   1.378  -0.013  0.00  0.00    -0.005 A 
ATOM      4  C4  <0> d           3.458   2.391  -0.018  0.00  0.00    -0.056 A 
ATOM      5  C5  <0> d           2.855   3.590  -0.006  0.00  0.00    -0.022 A 
ATOM      6  N1  <0> d           1.497   3.428   0.006  0.00  0.00    -0.363 N 
ATOM      7  H1  <0> d           0.850   4.150   0.015  0.00  0.00     0.165 HD
ATOM      8  C6  <0> d           1.186   2.086   0.002  0.00  0.00     0.075 A 
ATOM      9  C7  <0> d          -0.017   1.378   0.010  0.00  0.00     0.093 A 
ATOM     10  C8  <0> d           0.002  -0.004   0.002  0.00  0.00    -0.049 A 
ATOM     11  H2  <0> d           1.204  -1.774  -0.018  0.00  0.00     0.083 H 
ATOM     12  H3  <0> d           3.326  -0.564  -0.032  0.00  0.00     0.084 H 
ATOM     13  H4  <0> d           4.523   2.208  -0.029  0.00  0.00     0.086 H 
ATOM     14  H5  <0> d           3.366   4.542  -0.005  0.00  0.00     0.111 H 
ATOM     15  H6  <0> d          -0.929  -0.552   0.008  0.00  0.00     0.087 H 
ENDROOT
BRANCH   9  16
ATOM     16  O1  <0> d          -1.201   2.045   0.019  0.00  0.00    -0.358 OA
ATOM     17  H7  <0> d          -1.540   2.233   0.905  0.00  0.00     0.217 HD
ENDBRANCH   9  16
TORSDOF 1
