REMARK  1 active torsions:
REMARK  status: ('A' for Active; 'I' for Inactive)
REMARK    1  A    between atoms: C1_1  and  C2_2 
ROOT
ATOM      1  C2  <0> d           0.002  -0.004   0.002  0.00  0.00     0.053 A 
ATOM      2  C3  <0> d           0.006  -0.690  -1.214  0.00  0.00     0.069 A 
ATOM      3  C4  <0> d           0.025  -2.090  -1.202  0.00  0.00    -0.058 A 
ATOM      4  C5  <0> d           0.039  -2.735   0.021  0.00  0.00    -0.042 A 
ATOM      5  C6  <0> d           0.035  -1.983   1.184  0.00  0.00     0.126 A 
ATOM      6  N1  <0> d           0.022  -0.663   1.142  0.00  0.00    -0.240 NA
ATOM      7 Cl1  <0> d           0.053  -2.788   2.722  0.00  0.00    -0.062 Cl
ATOM      8  C7  <0> d          -0.011   0.028  -2.454  0.00  0.00     0.101 C 
ATOM      9  N2  <0> d          -0.023   0.596  -3.437  0.00  0.00    -0.191 NA
ATOM     10  H4  <0> d           0.028  -2.652  -2.124  0.00  0.00     0.086 H 
ATOM     11  H5  <0> d           0.054  -3.814   0.069  0.00  0.00     0.088 H 
ENDROOT
BRANCH   1  12
ATOM     12  C1  <0> d          -0.018   1.503   0.010  0.00  0.00    -0.034 C 
ATOM     13  H1  <0> d           1.004   1.880   0.003  0.00  0.00     0.035 H 
ATOM     14  H2  <0> d          -0.545   1.864  -0.873  0.00  0.00     0.035 H 
ATOM     15  H3  <0> d          -0.529   1.854   0.907  0.00  0.00     0.035 H 
ENDBRANCH   1  12
TORSDOF 1
