REMARK  3 active torsions:
REMARK  status: ('A' for Active; 'I' for Inactive)
REMARK    1  A    between atoms: C1_1  and  C2_2 
REMARK    2  A    between atoms: C2_2  and  C3_4 
REMARK    3  A    between atoms: C2_2  and  O1_8 
ROOT
ATOM      1  C2  <0> d          -0.013   1.086   0.008  0.00  0.00     0.125 C 
ATOM      2  H1  <0> d           0.002  -0.004   0.002  0.00  0.00     0.096 H 
ENDROOT
BRANCH   1   3
ATOM      3  C1  <0> d           1.423   1.615  -0.003  0.00  0.00    -0.044 C 
ATOM      4  H2  <0> d           1.408   2.705   0.003  0.00  0.00     0.031 H 
ATOM      5  H3  <0> d           1.950   1.254   0.880  0.00  0.00     0.031 H 
ATOM      6  H4  <0> d           1.933   1.264  -0.900  0.00  0.00     0.031 H 
ENDBRANCH   1   3
BRANCH   1   7
ATOM      7  C3  <0> d          -0.753   1.593  -1.232  0.00  0.00     0.412 C 
ATOM      8  F1  <0> d          -0.098   1.141  -2.382  0.00  0.00    -0.168 F 
ATOM      9  F2  <0> d          -2.065   1.108  -1.222  0.00  0.00    -0.168 F 
ATOM     10  F3  <0> d          -0.772   2.991  -1.224  0.00  0.00    -0.168 F 
ENDBRANCH   1   7
BRANCH   1  11
ATOM     11  O1  <0> d          -0.682   1.547   1.184  0.00  0.00    -0.387 OA
ATOM     12  H5  <0> d          -0.266   1.262   2.009  0.00  0.00     0.210 HD
ENDBRANCH   1  11
TORSDOF 3
