REMARK  2 active torsions:
REMARK  status: ('A' for Active; 'I' for Inactive)
REMARK    1  A    between atoms: C4_5  and  N2_10 
REMARK    2  A    between atoms: C5_6  and  C6_7 
ROOT
ATOM      1  C1  <0> d          -0.077   1.273   0.025  0.00  0.00    -0.024 A 
ATOM      2  C2  <0> d           1.059   2.063   0.034  0.00  0.00     0.135 A 
ATOM      3  C3  <0> d           2.308   1.463   0.002  0.00  0.00     0.042 A 
ATOM      4  N1  <0> d           2.435   0.150  -0.037  0.00  0.00    -0.240 NA
ATOM      5  C4  <0> d           1.382  -0.652  -0.047  0.00  0.00     0.138 A 
ATOM      6  C5  <0> d           0.081  -0.119  -0.016  0.00  0.00     0.089 A 
ATOM      7  F1  <0> d           0.952   3.409   0.072  0.00  0.00    -0.205 F 
ATOM      8  H1  <0> d          -1.061   1.717   0.054  0.00  0.00     0.090 H 
ATOM      9  H2  <0> d           3.193   2.081   0.009  0.00  0.00     0.119 H 
ENDROOT
BRANCH   5  10
ATOM     10  N2  <0> d           1.563  -2.022  -0.088  0.00  0.00    -0.383 N 
ATOM     11  H3  <0> d           2.454  -2.391  -0.194  0.00  0.00     0.157 HD
ATOM     12  H4  <0> d           0.799  -2.615  -0.011  0.00  0.00     0.157 HD
ENDBRANCH   5  10
BRANCH   6  13
ATOM     13  C6  <0> d          -1.092  -1.006  -0.026  0.00  0.00     0.213 C 
ATOM     14  O1  <0> d          -2.217  -0.532  -0.115  0.00  0.00    -0.644 OA
ATOM     15  O2  <0> d          -0.943  -2.218   0.053  0.00  0.00    -0.644 OA
ENDBRANCH   6  13
TORSDOF 2
