REMARK  4 active torsions:
REMARK  status: ('A' for Active; 'I' for Inactive)
REMARK    1  A    between atoms: C1_1  and  C2_2 
REMARK    2  A    between atoms: C2_2  and  C3_4 
REMARK    3  A    between atoms: C2_2  and  C5_7 
REMARK    4  A    between atoms: C3_4  and  C4_5 
ROOT
ATOM      1  C5  <0> d           2.056   0.734  -0.867  0.00  0.00     0.042 C 
ATOM      2  H2  <0> d           1.934   0.960  -1.927  0.00  0.00     0.083 H 
ATOM      3  C6  <0> d           1.494   1.890  -0.002  0.00  0.00    -0.039 C 
ATOM      4  C7  <0> d          -0.019   1.540   0.011  0.00  0.00    -0.043 C 
ATOM      5  C8  <0> d           0.002  -0.004   0.002  0.00  0.00     0.020 C 
ATOM      6  O2  <0> d           1.275  -0.417  -0.510  0.00  0.00    -0.385 OA
ATOM      7  H8  <0> d           1.670   2.856  -0.475  0.00  0.00     0.036 H 
ATOM      8  H9  <0> d           1.911   1.866   1.005  0.00  0.00     0.036 H 
ATOM      9  H10 <0> d          -0.514   1.926  -0.881  0.00  0.00     0.036 H 
ATOM     10  H11 <0> d          -0.497   1.916   0.915  0.00  0.00     0.036 H 
ATOM     11  H12 <0> d          -0.129  -0.381   1.016  0.00  0.00     0.074 H 
ATOM     12  H13 <0> d          -0.794  -0.381  -0.639  0.00  0.00     0.074 H 
ENDROOT
BRANCH   1  13
ATOM     13  C2  <0> d           3.532   0.496  -0.541  0.00  0.00    -0.023 C 
ATOM     14  H1  <0> d           3.639   0.283   0.522  0.00  0.00     0.044 H 
BRANCH  13  15
ATOM     15  C1  <0> d           4.341   1.745  -0.896  0.00  0.00    -0.070 C 
ATOM     16  H3  <0> d           3.973   2.592  -0.317  0.00  0.00     0.028 H 
ATOM     17  H4  <0> d           5.392   1.575  -0.663  0.00  0.00     0.028 H 
ATOM     18  H5  <0> d           4.234   1.958  -1.959  0.00  0.00     0.028 H 
ENDBRANCH  13  15
BRANCH  13  19
ATOM     19  C3  <0> d           4.048  -0.694  -1.353  0.00  0.00     0.021 C 
ATOM     20  H6  <0> d           3.417  -1.562  -1.168  0.00  0.00     0.049 H 
ATOM     21  H7  <0> d           4.024  -0.447  -2.415  0.00  0.00     0.049 H 
BRANCH  19  22
ATOM     22  C4  <0> d           5.465  -1.005  -0.943  0.00  0.00     0.172 C 
ATOM     23  O1  <0> d           6.005  -0.344  -0.088  0.00  0.00    -0.648 OA
ATOM     24  O3  <0> d           6.125  -2.018  -1.527  0.00  0.00    -0.648 OA
ENDBRANCH  19  22
ENDBRANCH  13  19
ENDBRANCH   1  13
TORSDOF 4
