REMARK  3 active torsions:
REMARK  status: ('A' for Active; 'I' for Inactive)
REMARK    1  A    between atoms: C1_1  and  O1_2 
REMARK    2  A    between atoms: O1_2  and  C2_3 
REMARK    3  A    between atoms: C2_3  and  C3_5 
ROOT
ATOM      1  C3  <0> d           0.659  -2.076  -1.122  0.00  0.00     0.246 A 
ATOM      2  N1  <0> d           0.151  -2.936  -0.220  0.00  0.00    -0.216 NA
ATOM      3  C4  <0> d           0.408  -4.146  -0.648  0.00  0.00     0.082 A 
ATOM      4  N2  <0> d           1.073  -4.033  -1.813  0.00  0.00    -0.270 N 
ATOM      5  H1  <0> d           1.392  -4.770  -2.357  0.00  0.00     0.190 HD
ATOM      6  N3  <0> d           1.210  -2.781  -2.086  0.00  0.00    -0.147 NA
ATOM      7  H5  <0> d           0.136  -5.068  -0.155  0.00  0.00     0.145 H 
ENDROOT
BRANCH   1   8
ATOM      8  C2  <0> d           0.601  -0.602  -1.046  0.00  0.00     0.332 C 
ATOM      9  O2  <0> d           1.093   0.071  -1.930  0.00  0.00    -0.256 OA
BRANCH   8  10
ATOM     10  O1  <0> d           0.002  -0.004   0.002  0.00  0.00    -0.320 OA
BRANCH  10  11
ATOM     11  C1  <0> d          -0.017   1.425   0.010  0.00  0.00     0.013 C 
ATOM     12  H2  <0> d           1.005   1.802   0.002  0.00  0.00     0.067 H 
ATOM     13  H3  <0> d          -0.544   1.786  -0.873  0.00  0.00     0.067 H 
ATOM     14  H4  <0> d          -0.527   1.776   0.907  0.00  0.00     0.067 H 
ENDBRANCH  10  11
ENDBRANCH   8  10
ENDBRANCH   1   8
TORSDOF 3
