REMARK  2 active torsions:
REMARK  status: ('A' for Active; 'I' for Inactive)
REMARK    1  A    between atoms: C1_1  and  C2_2 
REMARK    2  A    between atoms: N2_8  and  C6_9 
ROOT
ATOM      1  C2  <0> d           0.002  -0.004   0.002  0.00  0.00     0.013 A 
ATOM      2  C3  <0> d           1.192  -0.648  -0.013  0.00  0.00     0.006 A 
ATOM      3  C4  <0> d           2.380   0.123  -0.020  0.00  0.00     0.269 A 
ATOM      4  O1  <0> d           3.471  -0.425  -0.034  0.00  0.00    -0.266 OA
ATOM      5  N1  <0> d           2.294   1.465  -0.012  0.00  0.00    -0.205 NA
ATOM      6  C5  <0> d           1.132   2.059   0.002  0.00  0.00     0.070 A 
ATOM      7  N2  <0> d          -0.016   1.358   0.009  0.00  0.00    -0.350 N 
ATOM      8  H4  <0> d           1.235  -1.727  -0.019  0.00  0.00     0.095 H 
ATOM      9  H5  <0> d           1.091   3.139   0.008  0.00  0.00     0.144 H 
ENDROOT
BRANCH   1  10
ATOM     10  C1  <0> d          -1.287  -0.784   0.011  0.00  0.00    -0.037 C 
ATOM     11  H1  <0> d          -1.608  -0.967  -1.015  0.00  0.00     0.035 H 
ATOM     12  H2  <0> d          -1.132  -1.737   0.518  0.00  0.00     0.035 H 
ATOM     13  H3  <0> d          -2.054  -0.214   0.535  0.00  0.00     0.035 H 
ENDBRANCH   1  10
BRANCH   7  14
ATOM     14  C6  <0> d          -1.299   2.066   0.019  0.00  0.00    -0.013 C 
ATOM     15  H6  <0> d          -1.612   2.236   1.050  0.00  0.00     0.057 H 
ATOM     16  H7  <0> d          -1.189   3.023  -0.490  0.00  0.00     0.057 H 
ATOM     17  H8  <0> d          -2.050   1.465  -0.494  0.00  0.00     0.057 H 
ENDBRANCH   7  14
TORSDOF 2
