REMARK  1 active torsions:
REMARK  status: ('A' for Active; 'I' for Inactive)
REMARK    1  A    between atoms: C1_1  and  C2_2 
ROOT
ATOM      1  C2  <0> d           2.260   1.508  -0.012  0.00  0.00     0.086 A 
ATOM      2  C3  <0> d           2.404   0.116  -0.020  0.00  0.00     0.139 A 
ATOM      3  C4  <0> d           1.230  -0.667  -0.013  0.00  0.00     0.168 A 
ATOM      4  C5  <0> d           0.002  -0.004   0.002  0.00  0.00     0.253 A 
ATOM      5  N1  <0> d          -0.016   1.318   0.009  0.00  0.00    -0.119 NA
ATOM      6  N2  <0> d           1.051   2.029   0.003  0.00  0.00    -0.150 NA
ATOM      7  O1  <0> d          -1.158  -0.707   0.009  0.00  0.00    -0.166 OA
ATOM      8  N3  <0> d           1.662  -1.963  -0.025  0.00  0.00    -0.150 NA
ATOM      9  H1  <0> d           3.637  -2.818  -0.048  0.00  0.00     0.213 HD
ATOM     10  N4  <0> d           2.952  -1.958  -0.037  0.00  0.00    -0.196 N 
ATOM     11  N5  <0> d           3.423  -0.759  -0.035  0.00  0.00    -0.153 NA
ENDROOT
BRANCH   1  12
ATOM     12  C1  <0> d           3.474   2.400  -0.018  0.00  0.00    -0.032 C 
ATOM     13  H2  <0> d           4.383   1.781  -0.030  0.00  0.00     0.035 H 
ATOM     14  H3  <0> d           3.471   3.030   0.884  0.00  0.00     0.035 H 
ATOM     15  H4  <0> d           3.454   3.040  -0.912  0.00  0.00     0.035 H 
ENDBRANCH   1  12
TORSDOF 1
