REMARK  3 active torsions:
REMARK  status: ('A' for Active; 'I' for Inactive)
REMARK    1  A    between atoms: C1_1  and  C2_2 
REMARK    2  A    between atoms: C4_5  and  C5_7 
REMARK    3  A    between atoms: C7_9  and  N2_12 
ROOT
ATOM      1  C2  <0> d           0.002  -0.004   0.002  0.00  0.00    -0.048 A 
ATOM      2  H1  <0> d           0.075  -0.468  -0.982  0.00  0.00     0.040 H 
ATOM      3  C3  <0> d          -0.828  -0.728   1.065  0.00  0.00    -0.052 A 
ATOM      4  C4  <0> d           0.700  -0.708   1.168  0.00  0.00    -0.006 A 
ATOM      5  H2  <0> d           1.144  -0.081   1.941  0.00  0.00     0.050 H 
ATOM      6  H6  <0> d          -1.388  -0.114   1.770  0.00  0.00     0.034 H 
ATOM      7  H7  <0> d          -1.300  -1.668   0.780  0.00  0.00     0.034 H 
ENDROOT
BRANCH   4   8
ATOM      8  C5  <0> d           1.434  -1.989   0.869  0.00  0.00     0.070 A 
ATOM      9  N1  <0> d           2.709  -2.098   0.611  0.00  0.00    -0.131 NA
ATOM     10  O1  <0> d           2.998  -3.466   0.388  0.00  0.00    -0.196 OA
ATOM     11  C7  <0> d           1.851  -4.155   0.516  0.00  0.00     0.168 A 
ATOM     12  C6  <0> d           0.865  -3.268   0.813  0.00  0.00    -0.006 A 
ATOM     13  H8  <0> d          -0.175  -3.507   0.978  0.00  0.00     0.093 H 
BRANCH  11  14
ATOM     14  N2  <0> d           1.702  -5.521   0.371  0.00  0.00    -0.378 N 
ATOM     15  H9  <0> d           0.828  -5.928   0.483  0.00  0.00     0.158 HD
ATOM     16  H10 <0> d           2.470  -6.074   0.157  0.00  0.00     0.158 HD
ENDBRANCH  11  14
ENDBRANCH   4   8
BRANCH   1  17
ATOM     17  C1  <0> d          -0.019   1.526   0.010  0.00  0.00    -0.072 C 
ATOM     18  H3  <0> d           1.004   1.903   0.003  0.00  0.00     0.028 H 
ATOM     19  H4  <0> d          -0.546   1.887  -0.873  0.00  0.00     0.028 H 
ATOM     20  H5  <0> d          -0.529   1.877   0.907  0.00  0.00     0.028 H 
ENDBRANCH   1  17
TORSDOF 3
