REMARK  2 active torsions:
REMARK  status: ('A' for Active; 'I' for Inactive)
REMARK    1  A    between atoms: C4_5  and  C8_11 
REMARK    2  A    between atoms: C8_11  and  O1_12 
ROOT
ATOM      1  C1  <0> d           1.383   1.810  -0.001  0.00  0.00    -0.052 C 
ATOM      2  C2  <0> d          -0.013   1.086   0.008  0.00  0.00    -0.037 C 
ATOM      3  H1  <0> d           0.002  -0.004   0.002  0.00  0.00     0.046 H 
ATOM      4  C3  <0> d          -0.696   1.775  -1.216  0.00  0.00    -0.053 C 
ATOM      5  C4  <0> d          -0.175   3.258  -1.130  0.00  0.00    -0.026 C 
ATOM      6  H2  <0> d           0.398   3.524  -2.018  0.00  0.00     0.044 H 
ATOM      7  C5  <0> d           0.744   3.241   0.133  0.00  0.00    -0.032 C 
ATOM      8  H3  <0> d           1.435   4.077   0.238  0.00  0.00     0.046 H 
ATOM      9  C6  <0> d          -0.207   2.993   1.309  0.00  0.00    -0.102 C 
ATOM     10  C7  <0> d          -0.643   1.751   1.238  0.00  0.00    -0.102 C 
ATOM     11  H4  <0> d           1.997   1.545   0.859  0.00  0.00     0.035 H 
ATOM     12  H5  <0> d           1.916   1.677  -0.943  0.00  0.00     0.035 H 
ATOM     13  H6  <0> d          -0.382   1.303  -2.146  0.00  0.00     0.034 H 
ATOM     14  H7  <0> d          -1.781   1.744  -1.116  0.00  0.00     0.034 H 
ATOM     15  H8  <0> d          -0.475   3.713   2.068  0.00  0.00     0.077 H 
ATOM     16  H9  <0> d          -1.329   1.281   1.927  0.00  0.00     0.076 H 
ENDROOT
BRANCH   5  17
ATOM     17  C8  <0> d          -1.341   4.230  -0.933  0.00  0.00     0.021 C 
ATOM     18  H10 <0> d          -1.981   3.871  -0.127  0.00  0.00     0.074 H 
ATOM     19  H11 <0> d          -0.953   5.216  -0.677  0.00  0.00     0.074 H 
BRANCH  17  20
ATOM     20  O1  <0> d          -2.099   4.315  -2.141  0.00  0.00    -0.400 OA
ATOM     21  H12 <0> d          -2.856   4.914  -2.089  0.00  0.00     0.209 HD
ENDBRANCH  17  20
ENDBRANCH   5  17
TORSDOF 2
