REMARK  2 active torsions:
REMARK  status: ('A' for Active; 'I' for Inactive)
REMARK    1  A    between atoms: C1_1  and  N1_2 
REMARK    2  A    between atoms: N1_2  and  C2_3 
ROOT
ATOM      1  C2  <0> d           0.605  -0.687  -1.052  0.00  0.00     0.066 A 
ATOM      2  C3  <0> d           1.192   0.024  -2.094  0.00  0.00    -0.053 A 
ATOM      3  C4  <0> d           1.789  -0.647  -3.138  0.00  0.00    -0.061 A 
ATOM      4  C5  <0> d           1.805  -2.045  -3.151  0.00  0.00     0.047 A 
ATOM      5  C6  <0> d           1.214  -2.758  -2.103  0.00  0.00    -0.023 A 
ATOM      6  C7  <0> d           0.623  -2.080  -1.059  0.00  0.00     0.144 A 
ATOM      7  F1  <0> d           0.056  -2.767  -0.043  0.00  0.00    -0.204 F 
ATOM      8  C8  <0> d           2.425  -2.745  -4.235  0.00  0.00     0.099 C 
ATOM      9  N2  <0> d           2.917  -3.301  -5.096  0.00  0.00    -0.191 NA
ATOM     10  H5  <0> d           1.180   1.104  -2.084  0.00  0.00     0.087 H 
ATOM     11  H6  <0> d           2.245  -0.094  -3.946  0.00  0.00     0.086 H 
ATOM     12  H7  <0> d           1.224  -3.838  -2.110  0.00  0.00     0.090 H 
ENDROOT
BRANCH   1  13
ATOM     13  N1  <0> d           0.002  -0.004   0.002  0.00  0.00    -0.392 N 
ATOM     14  H4  <0> d          -0.404  -0.499   0.731  0.00  0.00     0.159 HD
BRANCH  13  15
ATOM     15  C1  <0> d          -0.018   1.461   0.010  0.00  0.00    -0.021 C 
ATOM     16  H1  <0> d           1.005   1.838   0.002  0.00  0.00     0.056 H 
ATOM     17  H2  <0> d          -0.545   1.822  -0.873  0.00  0.00     0.056 H 
ATOM     18  H3  <0> d          -0.528   1.812   0.907  0.00  0.00     0.056 H 
ENDBRANCH  13  15
ENDBRANCH   1  13
TORSDOF 2
