REMARK  1 active torsions:
REMARK  status: ('A' for Active; 'I' for Inactive)
REMARK    1  A    between atoms: C1_1  and  C2_2 
ROOT
ATOM      1  C2  <0> d          -0.017   1.362   0.009  0.00  0.00    -0.050 A 
ATOM      2  C3  <0> d           0.002  -0.004   0.002  0.00  0.00    -0.076 A 
ATOM      3  C4  <0> d           1.207  -0.693  -0.013  0.00  0.00    -0.080 A 
ATOM      4  C5  <0> d           2.405  -0.012  -0.021  0.00  0.00    -0.056 A 
ATOM      5  C6  <0> d           2.410   1.378  -0.014  0.00  0.00     0.042 A 
ATOM      6  C7  <0> d           1.186   2.072   0.002  0.00  0.00    -0.002 A 
ATOM      7  C8  <0> d           1.528   3.496   0.006  0.00  0.00    -0.056 A 
ATOM      8  C9  <0> d           2.867   3.579  -0.007  0.00  0.00    -0.022 A 
ATOM      9  N1  <0> d           3.412   2.323  -0.019  0.00  0.00    -0.365 N 
ATOM     10  H1  <0> d           4.362   2.128  -0.030  0.00  0.00     0.165 HD
ATOM     11  H5  <0> d          -0.928  -0.552   0.008  0.00  0.00     0.084 H 
ATOM     12  H6  <0> d           1.205  -1.773  -0.019  0.00  0.00     0.083 H 
ATOM     13  H7  <0> d           3.338  -0.557  -0.034  0.00  0.00     0.086 H 
ATOM     14  H8  <0> d           0.833   4.324   0.018  0.00  0.00     0.087 H 
ATOM     15  H9  <0> d           3.432   4.499  -0.007  0.00  0.00     0.111 H 
ENDROOT
BRANCH   1  16
ATOM     16  C1  <0> d          -1.330   2.101   0.020  0.00  0.00    -0.050 C 
ATOM     17  H2  <0> d          -1.642   2.273   1.050  0.00  0.00     0.033 H 
ATOM     18  H3  <0> d          -1.213   3.057  -0.489  0.00  0.00     0.033 H 
ATOM     19  H4  <0> d          -2.085   1.506  -0.494  0.00  0.00     0.033 H 
ENDBRANCH   1  16
TORSDOF 1
