REMARK  3 active torsions:
REMARK  status: ('A' for Active; 'I' for Inactive)
REMARK    1  A    between atoms: C1_1  and  N1_2 
REMARK    2  A    between atoms: C2_3  and  N5_10 
REMARK    3  A    between atoms: C3_4  and  C4_7 
REMARK       I    between atoms: C4_7  and  N4_9 
ROOT
ATOM      1  N1  <0> d           1.306  -0.369  -0.012  0.00  0.00    -0.238 N 
ATOM      2  C2  <0> d           0.002  -0.004   0.002  0.00  0.00     0.155 A 
ATOM      3  C3  <0> d          -0.017   1.385   0.010  0.00  0.00     0.192 A 
ATOM      4  N2  <0> d           1.258   1.819  -0.000  0.00  0.00    -0.122 NA
ATOM      5  N3  <0> d           2.059   0.813  -0.013  0.00  0.00    -0.064 NA
ENDROOT
BRANCH   3   6
ATOM      6  C4  <0> d          -1.216   2.231   0.020  0.00  0.00     0.273 C 
ATOM      7  O1  <0> d          -2.321   1.721   0.023  0.00  0.00    -0.266 OA
ATOM      8  N4  <0> d          -1.094   3.574   0.027  0.00  0.00    -0.365 N 
ATOM      9  H4  <0> d          -0.213   3.980   0.025  0.00  0.00     0.159 HD
ATOM     10  H5  <0> d          -1.886   4.133   0.034  0.00  0.00     0.159 HD
ENDBRANCH   3   6
BRANCH   2  11
ATOM     11  N5  <0> d          -1.091  -0.846   0.008  0.00  0.00    -0.382 N 
ATOM     12  H6  <0> d          -1.988  -0.476   0.019  0.00  0.00     0.157 HD
ATOM     13  H7  <0> d          -0.964  -1.807   0.002  0.00  0.00     0.157 HD
ENDBRANCH   2  11
BRANCH   1  14
ATOM     14  C1  <0> d           1.829  -1.737  -0.024  0.00  0.00     0.006 C 
ATOM     15  H1  <0> d           1.949  -2.071  -1.055  0.00  0.00     0.059 H 
ATOM     16  H2  <0> d           2.795  -1.761   0.480  0.00  0.00     0.059 H 
ATOM     17  H3  <0> d           1.133  -2.397   0.493  0.00  0.00     0.059 H 
ENDBRANCH   1  14
TORSDOF 3
