REMARK  3 active torsions:
REMARK  status: ('A' for Active; 'I' for Inactive)
REMARK    1  A    between atoms: C1_1  and  N1_2 
REMARK    2  A    between atoms: C4_6  and  C6_9 
REMARK    3  A    between atoms: C6_9  and  O2_10 
ROOT
ATOM      1  N1  <0> d           0.002  -0.004   0.002  0.00  0.00     0.088 N 
ATOM      2  C2  <0> d           0.714  -0.509  -1.181  0.00  0.00     0.132 C 
ATOM      3  C3  <0> d           2.145   0.035  -1.180  0.00  0.00     0.045 C 
ATOM      4  O1  <0> d           2.106   1.465  -1.141  0.00  0.00    -0.380 OA
ATOM      5  C4  <0> d           1.420   1.990  -0.001  0.00  0.00     0.084 C 
ATOM      6  H1  <0> d           1.982   1.641   0.878  0.00  0.00     0.089 H 
ATOM      7  C5  <0> d          -0.018   1.466   0.010  0.00  0.00     0.138 C 
ATOM      8  H5  <0> d           0.738  -1.608  -1.153  0.00  0.00     0.083 H 
ATOM      9  H6  <0> d           0.194  -0.176  -2.092  0.00  0.00     0.083 H 
ATOM     10  H7  <0> d           2.680  -0.343  -0.297  0.00  0.00     0.077 H 
ATOM     11  H8  <0> d           2.663  -0.294  -2.093  0.00  0.00     0.077 H 
ATOM     12  H9  <0> d          -0.550   1.830  -0.881  0.00  0.00     0.084 H 
ATOM     13  H10 <0> d          -0.533   1.821   0.915  0.00  0.00     0.084 H 
ENDROOT
BRANCH   5  14
ATOM     14  C6  <0> d           1.406   3.519  -0.073  0.00  0.00     0.042 C 
ATOM     15  H11 <0> d           0.974   3.836  -1.034  0.00  0.00     0.077 H 
ATOM     16  H12 <0> d           0.800   3.919   0.752  0.00  0.00     0.077 H 
BRANCH  14  17
ATOM     17  O2  <0> d           2.743   4.013   0.034  0.00  0.00    -0.398 OA
ATOM     18  H13 <0> d           2.933   5.096   0.002  0.00  0.00     0.209 HD
ENDBRANCH  14  17
ENDBRANCH   5  14
BRANCH   1  19
ATOM     19  C1  <0> d          -1.360  -0.549   0.069  0.00  0.00     0.095 C 
ATOM     20  H2  <0> d          -1.316  -1.649   0.062  0.00  0.00     0.071 H 
ATOM     21  H3  <0> d          -1.938  -0.200  -0.799  0.00  0.00     0.071 H 
ATOM     22  H4  <0> d          -1.846  -0.208   0.995  0.00  0.00     0.071 H 
ENDBRANCH   1  19
TORSDOF 3
