REMARK  2 active torsions:
REMARK  status: ('A' for Active; 'I' for Inactive)
REMARK    1  A    between atoms: C3_3  and  C7_9 
REMARK    2  A    between atoms: C5_5  and  N1_7 
ROOT
ATOM      1  C1  <0> d           0.114   5.191   0.029  0.00  0.00    -0.080 A 
ATOM      2  C2  <0> d           0.058   3.813   0.022  0.00  0.00    -0.063 A 
ATOM      3  C3  <0> d           1.238   3.066   0.007  0.00  0.00     0.081 A 
ATOM      4  C4  <0> d           2.473   3.720   0.004  0.00  0.00     0.159 A 
ATOM      5  C5  <0> d           2.517   5.109   0.005  0.00  0.00     0.066 A 
ATOM      6  C6  <0> d           1.336   5.840   0.020  0.00  0.00    -0.055 A 
ATOM      7  F1  <0> d           3.619   3.005  -0.005  0.00  0.00    -0.203 F 
ATOM      8  H1  <0> d          -0.800   5.766   0.041  0.00  0.00     0.083 H 
ATOM      9  H2  <0> d          -0.899   3.312   0.028  0.00  0.00     0.085 H 
ATOM     10  H3  <0> d           1.373   6.919   0.025  0.00  0.00     0.087 H 
ENDROOT
BRANCH   3  11
ATOM     11  C7  <0> d           1.181   1.591  -0.001  0.00  0.00     0.212 C 
ATOM     12  O1  <0> d           2.209   0.943  -0.014  0.00  0.00    -0.644 OA
ATOM     13  O2  <0> d          -0.011   0.963   0.007  0.00  0.00    -0.644 OA
ENDBRANCH   3  11
BRANCH   5  14
ATOM     14  N1  <0> d           3.749   5.770  -0.004  0.00  0.00    -0.397 N 
ATOM     15  H4  <0> d           3.783   6.869  -0.003  0.00  0.00     0.156 HD
ATOM     16  H5  <0> d           4.684   5.191  -0.011  0.00  0.00     0.156 HD
ENDBRANCH   5  14
TORSDOF 2
