REMARK  3 active torsions:
REMARK  status: ('A' for Active; 'I' for Inactive)
REMARK    1  A    between atoms: C1_1  and  C2_2 
REMARK    2  A    between atoms: C2_2  and  C4_5 
REMARK    3  A    between atoms: C2_2  and  N2_11 
ROOT
ATOM      1  C2  <0> d           0.002  -0.004   0.002  0.00  0.00     0.242 C 
ATOM      2  C3  <0> d           0.714  -0.492   1.195  0.00  0.00     0.101 C 
ATOM      3  N1  <0> d           1.263  -0.868   2.115  0.00  0.00    -0.195 NA
ENDROOT
BRANCH   1   4
ATOM      4  C1  <0> d          -0.019   1.526   0.010  0.00  0.00    -0.030 C 
ATOM      5  H1  <0> d           1.004   1.903   0.003  0.00  0.00     0.032 H 
ATOM      6  H2  <0> d          -0.546   1.887  -0.873  0.00  0.00     0.032 H 
ATOM      7  H3  <0> d          -0.529   1.877   0.907  0.00  0.00     0.032 H 
ENDBRANCH   1   4
BRANCH   1   8
ATOM      8  C4  <0> d           0.718  -0.497  -1.257  0.00  0.00    -0.007 C 
ATOM      9  C9  <0> d           0.849  -2.021  -1.205  0.00  0.00    -0.058 C 
ATOM     10  C8  <0> d           1.565  -2.514  -2.464  0.00  0.00    -0.065 C 
ATOM     11  H13 <0> d           1.425  -2.306  -0.324  0.00  0.00     0.033 H 
ATOM     12  H14 <0> d          -0.143  -2.469  -1.152  0.00  0.00     0.033 H 
ATOM     13  C7  <0> d           2.958  -1.885  -2.538  0.00  0.00    -0.065 C 
ATOM     14  H11 <0> d           0.990  -2.229  -3.345  0.00  0.00     0.033 H 
ATOM     15  H12 <0> d           1.659  -3.600  -2.427  0.00  0.00     0.033 H 
ATOM     16  C6  <0> d           2.827  -0.361  -2.590  0.00  0.00    -0.065 C 
ATOM     17  H9  <0> d           3.468  -2.236  -3.435  0.00  0.00     0.033 H 
ATOM     18  H10 <0> d           3.533  -2.170  -1.657  0.00  0.00     0.033 H 
ATOM     19  C5  <0> d           2.111   0.132  -1.331  0.00  0.00    -0.058 C 
ATOM     20  H7  <0> d           2.252  -0.076  -3.471  0.00  0.00     0.033 H 
ATOM     21  H8  <0> d           3.819   0.087  -2.643  0.00  0.00     0.033 H 
ATOM     22  H5  <0> d           2.017   1.217  -1.368  0.00  0.00     0.033 H 
ATOM     23  H6  <0> d           2.686  -0.153  -0.450  0.00  0.00     0.033 H 
ATOM     24  H4  <0> d           0.143  -0.212  -2.138  0.00  0.00     0.045 H 
ENDBRANCH   1   8
BRANCH   1  25
ATOM     25  N2  <0> d          -1.376  -0.512   0.012  0.00  0.00     0.102 N 
ATOM     26  H15 <0> d          -1.905  -0.140  -0.762  0.00  0.00     0.315 HD
ATOM     27  H16 <0> d          -1.389  -1.521   0.007  0.00  0.00     0.315 HD
ENDBRANCH   1  25
TORSDOF 3
