REMARK  3 active torsions:
REMARK  status: ('A' for Active; 'I' for Inactive)
REMARK    1  A    between atoms: C1_1  and  C2_2 
REMARK    2  A    between atoms: C6_6  and  C9_10 
REMARK    3  A    between atoms: C7_7  and  C8_8 
ROOT
ATOM      1  C2  <0> d          -1.235   2.158   0.020  0.00  0.00    -0.044 A 
ATOM      2  C3  <0> d          -1.246   3.537   0.034  0.00  0.00    -0.076 A 
ATOM      3  C4  <0> d          -0.056   4.242   0.026  0.00  0.00    -0.082 A 
ATOM      4  C5  <0> d           1.154   3.570   0.010  0.00  0.00    -0.076 A 
ATOM      5  C6  <0> d           1.180   2.191   0.003  0.00  0.00    -0.044 A 
ATOM      6  C7  <0> d          -0.018   1.473   0.010  0.00  0.00     0.052 A 
ATOM      7  H4  <0> d          -2.187   4.068   0.046  0.00  0.00     0.084 H 
ATOM      8  H5  <0> d          -0.070   5.322   0.032  0.00  0.00     0.083 H 
ATOM      9  H6  <0> d           2.079   4.126   0.004  0.00  0.00     0.084 H 
ENDROOT
BRANCH   1  10
ATOM     10  C1  <0> d          -2.533   1.392   0.021  0.00  0.00    -0.050 C 
ATOM     11  H1  <0> d          -2.841   1.201   1.049  0.00  0.00     0.033 H 
ATOM     12  H2  <0> d          -3.300   1.976  -0.486  0.00  0.00     0.033 H 
ATOM     13  H3  <0> d          -2.395   0.444  -0.499  0.00  0.00     0.033 H 
ENDBRANCH   1  10
BRANCH   6  14
ATOM     14  C8  <0> d           0.002  -0.004   0.002  0.00  0.00     0.210 C 
ATOM     15  O1  <0> d           0.020  -0.617   1.051  0.00  0.00    -0.644 OA
ATOM     16  O2  <0> d           0.000  -0.671  -1.168  0.00  0.00    -0.644 OA
ENDBRANCH   6  14
BRANCH   5  17
ATOM     17  C9  <0> d           2.498   1.460  -0.013  0.00  0.00    -0.050 C 
ATOM     18  H7  <0> d           2.806   1.289  -1.045  0.00  0.00     0.033 H 
ATOM     19  H8  <0> d           3.252   2.060   0.496  0.00  0.00     0.033 H 
ATOM     20  H9  <0> d           2.389   0.503   0.496  0.00  0.00     0.033 H 
ENDBRANCH   5  17
TORSDOF 3
