REMARK  4 active torsions:
REMARK  status: ('A' for Active; 'I' for Inactive)
REMARK    1  A    between atoms: C1_1  and  C2_2 
REMARK    2  A    between atoms: C7_8  and  O1_10 
REMARK    3  A    between atoms: O1_10  and  C8_11 
REMARK    4  A    between atoms: C8_11  and  C9_13 
ROOT
ATOM      1  C2  <0> d          -0.013   1.086   0.008  0.00  0.00    -0.032 C 
ATOM      2  H1  <0> d           0.002  -0.004   0.002  0.00  0.00     0.043 H 
ATOM      3  C3  <0> d          -0.729   1.579   1.267  0.00  0.00    -0.060 C 
ATOM      4  C4  <0> d          -2.164   1.050   1.278  0.00  0.00    -0.065 C 
ATOM      5  C5  <0> d          -2.904   1.556   0.038  0.00  0.00    -0.063 C 
ATOM      6  C6  <0> d          -2.188   1.063  -1.221  0.00  0.00    -0.040 C 
ATOM      7  C7  <0> d          -0.753   1.593  -1.232  0.00  0.00     0.051 C 
ATOM      8  H2  <0> d          -0.767   2.683  -1.226  0.00  0.00     0.084 H 
ATOM      9  H6  <0> d          -0.202   1.218   2.150  0.00  0.00     0.033 H 
ATOM     10  H7  <0> d          -0.744   2.669   1.273  0.00  0.00     0.033 H 
ATOM     11  H8  <0> d          -2.674   1.401   2.175  0.00  0.00     0.033 H 
ATOM     12  H9  <0> d          -2.149  -0.040   1.272  0.00  0.00     0.033 H 
ATOM     13  H10 <0> d          -2.919   2.646   0.044  0.00  0.00     0.033 H 
ATOM     14  H11 <0> d          -3.927   1.179   0.046  0.00  0.00     0.033 H 
ATOM     15  H12 <0> d          -2.715   1.424  -2.104  0.00  0.00     0.036 H 
ATOM     16  H13 <0> d          -2.173  -0.027  -1.227  0.00  0.00     0.036 H 
ENDROOT
BRANCH   7  17
ATOM     17  O1  <0> d          -0.073   1.124  -2.426  0.00  0.00    -0.316 OA
BRANCH  17  18
ATOM     18  C8  <0> d          -0.152   1.903  -3.517  0.00  0.00     0.255 C 
ATOM     19  O2  <0> d          -0.768   2.941  -3.475  0.00  0.00    -0.266 OA
BRANCH  18  20
ATOM     20  C9  <0> d           0.528   1.482  -4.794  0.00  0.00     0.004 C 
ATOM     21  H14 <0> d          -0.160   0.886  -5.393  0.00  0.00     0.041 H 
ATOM     22  H15 <0> d           0.826   2.367  -5.356  0.00  0.00     0.041 H 
ATOM     23  H16 <0> d           1.411   0.888  -4.557  0.00  0.00     0.041 H 
ENDBRANCH  18  20
ENDBRANCH  17  18
ENDBRANCH   7  17
BRANCH   1  24
ATOM     24  C1  <0> d           1.423   1.615  -0.003  0.00  0.00    -0.070 C 
ATOM     25  H3  <0> d           1.408   2.705   0.003  0.00  0.00     0.028 H 
ATOM     26  H4  <0> d           1.950   1.254   0.880  0.00  0.00     0.028 H 
ATOM     27  H5  <0> d           1.933   1.264  -0.900  0.00  0.00     0.028 H 
ENDBRANCH   1  24
TORSDOF 4
