REMARK  2 active torsions:
REMARK  status: ('A' for Active; 'I' for Inactive)
REMARK    1  A    between atoms: C1_1  and  N1_2 
REMARK    2  A    between atoms: C5_7  and  O1_11 
ROOT
ATOM      1  N1  <0> d          -0.698   1.558   1.213  0.00  0.00    -0.342 N 
ATOM      2  C2  <0> d          -2.028   1.814   1.337  0.00  0.00     0.067 A 
ATOM      3  N2  <0> d          -2.296   2.215   2.545  0.00  0.00    -0.242 NA
ATOM      4  C3  <0> d          -1.154   2.253   3.278  0.00  0.00     0.087 A 
ATOM      5  C4  <0> d          -0.113   1.833   2.435  0.00  0.00     0.097 A 
ATOM      6  C5  <0> d           1.190   1.771   2.921  0.00  0.00     0.095 A 
ATOM      7  C6  <0> d           1.447   2.126   4.233  0.00  0.00    -0.049 A 
ATOM      8  C7  <0> d           0.415   2.541   5.063  0.00  0.00    -0.078 A 
ATOM      9  C8  <0> d          -0.868   2.607   4.600  0.00  0.00    -0.053 A 
ATOM     10  H4  <0> d          -2.756   1.698   0.547  0.00  0.00     0.143 H 
ATOM     11  H5  <0> d           2.457   2.079   4.614  0.00  0.00     0.087 H 
ATOM     12  H6  <0> d           0.630   2.815   6.085  0.00  0.00     0.083 H 
ATOM     13  H7  <0> d          -1.663   2.931   5.256  0.00  0.00     0.087 H 
ENDROOT
BRANCH   1  14
ATOM     14  C1  <0> d          -0.013   1.086   0.008  0.00  0.00    -0.013 C 
ATOM     15  H1  <0> d           0.002  -0.004   0.002  0.00  0.00     0.057 H 
ATOM     16  H2  <0> d           1.010   1.463   0.000  0.00  0.00     0.057 H 
ATOM     17  H3  <0> d          -0.540   1.447  -0.875  0.00  0.00     0.057 H 
ENDBRANCH   1  14
BRANCH   6  18
ATOM     18  O1  <0> d           2.204   1.365   2.111  0.00  0.00    -0.358 OA
ATOM     19  H8  <0> d           2.631   2.084   1.625  0.00  0.00     0.217 HD
ENDBRANCH   6  18
TORSDOF 2
