REMARK  2 active torsions:
REMARK  status: ('A' for Active; 'I' for Inactive)
REMARK    1  A    between atoms: C1_1  and  C2_2 
REMARK    2  A    between atoms: C6_7  and  O1_9 
ROOT
ATOM      1  C2  <0> d           0.002  -0.004   0.002  0.00  0.00    -0.033 C 
ATOM      2  H1  <0> d          -1.014  -0.398  -0.036  0.00  0.00     0.043 H 
ATOM      3  C3  <0> d           0.835  -0.528  -1.194  0.00  0.00    -0.060 C 
ATOM      4  C4  <0> d           1.253  -1.944  -0.725  0.00  0.00    -0.062 C 
ATOM      5  C5  <0> d           1.539  -1.774   0.781  0.00  0.00    -0.041 C 
ATOM      6  C6  <0> d           0.744  -0.541   1.244  0.00  0.00     0.038 C 
ATOM      7  H2  <0> d           0.026  -0.825   2.013  0.00  0.00     0.083 H 
ATOM      8  H6  <0> d           0.224  -0.585  -2.095  0.00  0.00     0.033 H 
ATOM      9  H7  <0> d           1.711   0.099  -1.359  0.00  0.00     0.033 H 
ATOM     10  H8  <0> d           2.151  -2.270  -1.250  0.00  0.00     0.033 H 
ATOM     11  H9  <0> d           0.440  -2.653  -0.881  0.00  0.00     0.033 H 
ATOM     12  H10 <0> d           2.605  -1.613   0.943  0.00  0.00     0.036 H 
ATOM     13  H11 <0> d           1.208  -2.658   1.326  0.00  0.00     0.036 H 
ENDROOT
BRANCH   1  14
ATOM     14  C1  <0> d          -0.019   1.526   0.010  0.00  0.00    -0.071 C 
ATOM     15  H3  <0> d           1.004   1.903   0.003  0.00  0.00     0.028 H 
ATOM     16  H4  <0> d          -0.546   1.887  -0.873  0.00  0.00     0.028 H 
ATOM     17  H5  <0> d          -0.529   1.877   0.907  0.00  0.00     0.028 H 
ENDBRANCH   1  14
BRANCH   6  18
ATOM     18  O1  <0> d           1.635   0.455   1.750  0.00  0.00    -0.395 OA
ATOM     19  H12 <0> d           2.132   0.177   2.532  0.00  0.00     0.210 HD
ENDBRANCH   6  18
TORSDOF 2
