REMARK  3 active torsions:
REMARK  status: ('A' for Active; 'I' for Inactive)
REMARK    1  A    between atoms: C1_1  and  C2_2 
REMARK    2  A    between atoms: C2_2  and  C3_3 
REMARK    3  A    between atoms: C3_3  and  C4_4 
ROOT
ATOM      1  C4  <0> d          -0.013   1.086   0.008  0.00  0.00     0.004 C 
ATOM      2  H1  <0> d           0.004   0.086   0.003  0.00  0.00     0.051 H 
ATOM      3  C5  <0> d          -0.738   1.584   1.263  0.00  0.00    -0.055 C 
ATOM      4  C6  <0> d          -2.211   1.162   1.194  0.00  0.00    -0.064 C 
ATOM      5  C7  <0> d          -2.891   1.838   0.002  0.00  0.00    -0.059 C 
ATOM      6  C8  <0> d          -2.243   1.349  -1.297  0.00  0.00    -0.009 C 
ATOM      7  C9  <0> d          -0.752   1.591  -1.212  0.00  0.00     0.131 C 
ATOM      8  O1  <0> d          -0.167   2.172  -2.094  0.00  0.00    -0.298 OA
ATOM      9  H9  <0> d          -0.272   1.151   2.148  0.00  0.00     0.034 H 
ATOM     10  H10 <0> d          -0.673   2.671   1.313  0.00  0.00     0.034 H 
ATOM     11  H11 <0> d          -2.714   1.459   2.115  0.00  0.00     0.033 H 
ATOM     12  H12 <0> d          -2.271   0.080   1.081  0.00  0.00     0.033 H 
ATOM     13  H13 <0> d          -2.776   2.919   0.082  0.00  0.00     0.033 H 
ATOM     14  H14 <0> d          -3.951   1.585  -0.003  0.00  0.00     0.033 H 
ATOM     15  H15 <0> d          -2.627   1.852  -2.071  0.00  0.00     0.044 H 
ATOM     16  H16 <0> d          -2.434   0.284  -1.424  0.00  0.00     0.044 H 
ENDROOT
BRANCH   1  17
ATOM     17  C3  <0> d           1.421   1.619  -0.003  0.00  0.00    -0.056 C 
ATOM     18  H7  <0> d           1.404   2.706  -0.086  0.00  0.00     0.034 H 
ATOM     19  H8  <0> d           1.922   1.334   0.922  0.00  0.00     0.034 H 
BRANCH  17  20
ATOM     20  C2  <0> d           2.176   1.028  -1.195  0.00  0.00    -0.068 C 
ATOM     21  H5  <0> d           2.194  -0.059  -1.111  0.00  0.00     0.032 H 
ATOM     22  H6  <0> d           1.676   1.313  -2.120  0.00  0.00     0.032 H 
BRANCH  20  23
ATOM     23  C1  <0> d           3.610   1.561  -1.206  0.00  0.00    -0.076 C 
ATOM     24  H2  <0> d           3.593   2.648  -1.289  0.00  0.00     0.027 H 
ATOM     25  H3  <0> d           4.111   1.276  -0.281  0.00  0.00     0.027 H 
ATOM     26  H4  <0> d           4.148   1.140  -2.055  0.00  0.00     0.027 H 
ENDBRANCH  20  23
ENDBRANCH  17  20
ENDBRANCH   1  17
TORSDOF 3
