REMARK  2 active torsions:
REMARK  status: ('A' for Active; 'I' for Inactive)
REMARK    1  A    between atoms: C4_4  and  O1_10 
REMARK    2  A    between atoms: C5_5  and  C7_7 
ROOT
ATOM      1  C1  <0> d          -0.017   1.378   0.010  0.00  0.00    -0.082 A 
ATOM      2  C2  <0> d           1.170   2.088   0.002  0.00  0.00    -0.080 A 
ATOM      3  C3  <0> d           2.377   1.417  -0.013  0.00  0.00    -0.050 A 
ATOM      4  C4  <0> d           2.399   0.030  -0.021  0.00  0.00     0.077 A 
ATOM      5  C5  <0> d           1.207  -0.680  -0.013  0.00  0.00     0.039 A 
ATOM      6  C6  <0> d           0.002  -0.004   0.002  0.00  0.00    -0.069 A 
ATOM      7  H1  <0> d          -0.960   1.905   0.026  0.00  0.00     0.083 H 
ATOM      8  H2  <0> d           1.153   3.168   0.008  0.00  0.00     0.083 H 
ATOM      9  H3  <0> d           3.304   1.972  -0.020  0.00  0.00     0.087 H 
ATOM     10  H4  <0> d          -0.926  -0.556   0.008  0.00  0.00     0.084 H 
ENDROOT
BRANCH   5  11
ATOM     11  C7  <0> d           1.227  -2.187  -0.022  0.00  0.00     0.236 C 
ATOM     12  F1  <0> d           0.084  -2.664  -0.672  0.00  0.00    -0.209 F 
ATOM     13  F2  <0> d           2.368  -2.634  -0.695  0.00  0.00    -0.209 F 
ATOM     14  H5  <0> d           1.242  -2.556   1.004  0.00  0.00     0.153 H 
ENDBRANCH   5  11
BRANCH   4  15
ATOM     15  O1  <0> d           3.586  -0.632  -0.037  0.00  0.00    -0.360 OA
ATOM     16  H6  <0> d           3.938  -0.829   0.842  0.00  0.00     0.217 HD
ENDBRANCH   4  15
TORSDOF 2
