REMARK  5 active torsions:
REMARK  status: ('A' for Active; 'I' for Inactive)
REMARK    1  A    between atoms: C1_1  and  C2_2 
REMARK    2  A    between atoms: C4_4  and  N2_9 
REMARK    3  A    between atoms: C7_7  and  N1_8 
REMARK    4  A    between atoms: N2_9  and  C8_10 
REMARK    5  A    between atoms: N2_9  and  C9_11 
ROOT
ATOM      1  C2  <0> d           1.162   3.175  -0.010  0.00  0.00    -0.034 A 
ATOM      2  C3  <0> d          -0.044   3.849   0.006  0.00  0.00    -0.050 A 
ATOM      3  C4  <0> d          -1.236   3.139   0.029  0.00  0.00     0.030 A 
ATOM      4  C5  <0> d          -1.217   1.750   0.029  0.00  0.00    -0.055 A 
ATOM      5  C6  <0> d          -0.012   1.076   0.018  0.00  0.00    -0.055 A 
ATOM      6  C7  <0> d           1.181   1.787  -0.004  0.00  0.00     0.031 A 
ATOM      7  H4  <0> d          -0.059   4.929   0.002  0.00  0.00     0.087 H 
ATOM      8  H5  <0> d          -2.145   1.197   0.041  0.00  0.00     0.087 H 
ATOM      9  H6  <0> d           0.003  -0.004   0.022  0.00  0.00     0.087 H 
ENDROOT
BRANCH   3  10
ATOM     10  N2  <0> d          -2.458   3.822   0.046  0.00  0.00    -0.390 N 
BRANCH  10  11
ATOM     11  C8  <0> d          -2.479   5.282   0.166  0.00  0.00    -0.019 C 
ATOM     12  H9  <0> d          -3.521   5.635   0.162  0.00  0.00     0.056 H 
ATOM     13  H10 <0> d          -1.938   5.727  -0.682  0.00  0.00     0.056 H 
ATOM     14  H11 <0> d          -1.995   5.580   1.108  0.00  0.00     0.056 H 
ENDBRANCH  10  11
BRANCH  10  15
ATOM     15  C9  <0> d          -3.715   3.077  -0.056  0.00  0.00    -0.019 C 
ATOM     16  H12 <0> d          -4.561   3.780  -0.025  0.00  0.00     0.056 H 
ATOM     17  H13 <0> d          -3.793   2.372   0.785  0.00  0.00     0.056 H 
ATOM     18  H14 <0> d          -3.736   2.520  -1.004  0.00  0.00     0.056 H 
ENDBRANCH  10  15
ENDBRANCH   3  10
BRANCH   1  19
ATOM     19  C1  <0> d           2.456   3.946  -0.034  0.00  0.00    -0.049 C 
ATOM     20  H1  <0> d           2.240   5.025  -0.036  0.00  0.00     0.033 H 
ATOM     21  H2  <0> d           3.022   3.685  -0.940  0.00  0.00     0.033 H 
ATOM     22  H3  <0> d           3.051   3.693   0.856  0.00  0.00     0.033 H 
ENDBRANCH   1  19
BRANCH   6  23
ATOM     23  N1  <0> d           2.403   1.104  -0.021  0.00  0.00    -0.399 N 
ATOM     24  H7  <0> d           2.418   0.004  -0.017  0.00  0.00     0.156 HD
ATOM     25  H8  <0> d           3.347   1.667  -0.039  0.00  0.00     0.156 HD
ENDBRANCH   6  23
TORSDOF 5
