REMARK  2 active torsions:
REMARK  status: ('A' for Active; 'I' for Inactive)
REMARK    1  A    between atoms: C1_1  and  C2_2 
REMARK    2  A    between atoms: C2_2  and  C9_11 
ROOT
ATOM      1  C2  <0> d          -0.170   3.237   1.160  0.00  0.00     0.052 C 
ATOM      2  C3  <0> d          -0.673   1.762   1.252  0.00  0.00    -0.042 C 
ATOM      3  C4  <0> d          -0.013   1.086   0.008  0.00  0.00    -0.036 C 
ATOM      4  H1  <0> d           0.002  -0.004   0.002  0.00  0.00     0.046 H 
ATOM      5  C5  <0> d           1.383   1.810  -0.001  0.00  0.00    -0.051 C 
ATOM      6  C6  <0> d           0.742   3.242  -0.108  0.00  0.00    -0.021 C 
ATOM      7  H2  <0> d           1.431   4.079  -0.217  0.00  0.00     0.048 H 
ATOM      8  C7  <0> d          -0.232   3.006  -1.269  0.00  0.00    -0.101 C 
ATOM      9  C8  <0> d          -0.667   1.764  -1.202  0.00  0.00    -0.102 C 
ATOM     10  H6  <0> d          -1.759   1.732   1.173  0.00  0.00     0.035 H 
ATOM     11  H7  <0> d          -0.341   1.280   2.171  0.00  0.00     0.035 H 
ATOM     12  H8  <0> d           1.934   1.667   0.928  0.00  0.00     0.035 H 
ATOM     13  H9  <0> d           1.981   1.553  -0.876  0.00  0.00     0.035 H 
ATOM     14  H10 <0> d          -0.514   3.735  -2.015  0.00  0.00     0.077 H 
ATOM     15  H11 <0> d          -1.365   1.302  -1.884  0.00  0.00     0.076 H 
ENDROOT
BRANCH   1  16
ATOM     16  C1  <0> d           0.641   3.591   2.408  0.00  0.00    -0.059 C 
ATOM     17  H3  <0> d           1.076   4.583   2.289  0.00  0.00     0.029 H 
ATOM     18  H4  <0> d          -0.012   3.582   3.281  0.00  0.00     0.029 H 
ATOM     19  H5  <0> d           1.438   2.859   2.543  0.00  0.00     0.029 H 
ENDBRANCH   1  16
BRANCH   1  20
ATOM     20  C9  <0> d          -1.322   4.193   0.988  0.00  0.00     0.182 C 
ATOM     21  O1  <0> d          -1.432   4.829  -0.034  0.00  0.00    -0.647 OA
ATOM     22  O2  <0> d          -2.227   4.338   1.969  0.00  0.00    -0.647 OA
ENDBRANCH   1  20
TORSDOF 2
