REMARK  6 active torsions:
REMARK  status: ('A' for Active; 'I' for Inactive)
REMARK    1  A    between atoms: C1_1  and  C2_2 
REMARK    2  A    between atoms: C2_2  and  C4_4 
REMARK    3  A    between atoms: C4_4  and  C5_5 
REMARK    4  A    between atoms: C5_5  and  C6_6 
REMARK    5  A    between atoms: C5_5  and  C7_7 
REMARK    6  A    between atoms: C5_5  and  O1_8 
ROOT
ATOM      1  C4  <0> d           1.446   1.852  -0.438  0.00  0.00    -0.018 C 
ATOM      2  H6  <0> d           1.791   1.330  -1.330  0.00  0.00     0.044 H 
ATOM      3  H7  <0> d           1.377   2.920  -0.645  0.00  0.00     0.044 H 
ENDROOT
BRANCH   1   4
ATOM      4  C2  <0> d           2.420   1.621   0.689  0.00  0.00    -0.090 C 
ATOM      5  C3  <0> d           2.655   2.573   1.557  0.00  0.00    -0.119 C 
ATOM      6  H4  <0> d           3.353   2.407   2.365  0.00  0.00     0.067 H 
ATOM      7  H5  <0> d           2.151   3.524   1.466  0.00  0.00     0.067 H 
BRANCH   4   8
ATOM      8  C1  <0> d           3.123   0.294   0.817  0.00  0.00    -0.055 C 
ATOM      9  H1  <0> d           3.637   0.064  -0.117  0.00  0.00     0.033 H 
ATOM     10  H2  <0> d           3.849   0.344   1.628  0.00  0.00     0.033 H 
ATOM     11  H3  <0> d           2.392  -0.486   1.030  0.00  0.00     0.033 H 
ENDBRANCH   4   8
ENDBRANCH   1   4
BRANCH   1  12
ATOM     12  C5  <0> d           0.068   1.321  -0.037  0.00  0.00     0.054 C 
BRANCH  12  13
ATOM     13  C6  <0> d          -0.911   1.519  -1.197  0.00  0.00    -0.048 C 
ATOM     14  H8  <0> d          -1.893   1.140  -0.912  0.00  0.00     0.031 H 
ATOM     15  H9  <0> d          -0.985   2.580  -1.433  0.00  0.00     0.031 H 
ATOM     16  H10 <0> d          -0.553   0.976  -2.071  0.00  0.00     0.031 H 
ENDBRANCH  12  13
BRANCH  12  17
ATOM     17  C7  <0> d          -0.435   2.082   1.190  0.00  0.00    -0.048 C 
ATOM     18  H11 <0> d           0.258   1.936   2.018  0.00  0.00     0.031 H 
ATOM     19  H12 <0> d          -0.503   3.145   0.957  0.00  0.00     0.031 H 
ATOM     20  H13 <0> d          -1.420   1.709   1.471  0.00  0.00     0.031 H 
ENDBRANCH  12  17
BRANCH  12  21
ATOM     21  O1  <0> d           0.165  -0.071   0.272  0.00  0.00    -0.390 OA
ATOM     22  H14 <0> d           0.479  -0.616  -0.463  0.00  0.00     0.210 HD
ENDBRANCH  12  21
ENDBRANCH   1  12
TORSDOF 6
