REMARK  3 active torsions:
REMARK  status: ('A' for Active; 'I' for Inactive)
REMARK    1  A    between atoms: C1_1  and  C2_2 
REMARK    2  A    between atoms: C2_2  and  C3_4 
REMARK    3  A    between atoms: C2_2  and  O1_12 
ROOT
ATOM      1  C3  <0> d           0.707  -0.490  -1.238  0.00  0.00    -0.029 A 
ATOM      2  C4  <0> d           2.086  -0.608  -1.246  0.00  0.00    -0.074 A 
ATOM      3  C5  <0> d           2.742  -1.054  -2.380  0.00  0.00    -0.081 A 
ATOM      4  C6  <0> d           2.024  -1.383  -3.511  0.00  0.00    -0.063 A 
ATOM      5  C7  <0> d           0.633  -1.267  -3.510  0.00  0.00     0.045 A 
ATOM      6  C8  <0> d          -0.023  -0.821  -2.360  0.00  0.00    -0.054 A 
ATOM      7  C9  <0> d          -0.119  -1.608  -4.680  0.00  0.00     0.099 C 
ATOM      8  N1  <0> d          -0.715  -1.878  -5.608  0.00  0.00    -0.191 NA
ATOM      9  H5  <0> d           2.653  -0.351  -0.363  0.00  0.00     0.084 H 
ATOM     10  H6  <0> d           3.818  -1.143  -2.380  0.00  0.00     0.083 H 
ATOM     11  H7  <0> d           2.537  -1.731  -4.396  0.00  0.00     0.085 H 
ATOM     12  H8  <0> d          -1.099  -0.733  -2.351  0.00  0.00     0.086 H 
ENDROOT
BRANCH   1  13
ATOM     13  C2  <0> d           0.002  -0.004   0.002  0.00  0.00     0.057 C 
ATOM     14  H1  <0> d          -1.020  -0.381   0.010  0.00  0.00     0.089 H 
BRANCH  13  15
ATOM     15  C1  <0> d          -0.019   1.526   0.010  0.00  0.00    -0.049 C 
ATOM     16  H2  <0> d           1.004   1.903   0.003  0.00  0.00     0.031 H 
ATOM     17  H3  <0> d          -0.546   1.887  -0.873  0.00  0.00     0.031 H 
ATOM     18  H4  <0> d          -0.529   1.877   0.907  0.00  0.00     0.031 H 
ENDBRANCH  13  15
BRANCH  13  19
ATOM     19  O1  <0> d           0.693  -0.477   1.160  0.00  0.00    -0.391 OA
ATOM     20  H9  <0> d           0.294  -0.202   1.996  0.00  0.00     0.210 HD
ENDBRANCH  13  19
ENDBRANCH   1  13
TORSDOF 3
