REMARK  7 active torsions:
REMARK  status: ('A' for Active; 'I' for Inactive)
REMARK    1  A    between atoms: C1_1  and  C2_2 
REMARK    2  A    between atoms: C1_1  and  C5_8 
REMARK    3  A    between atoms: C2_2  and  C3_3 
REMARK    4  A    between atoms: C3_3  and  C4_5 
REMARK    5  A    between atoms: C3_3  and  O2_7 
REMARK    6  A    between atoms: C4_5  and  O1_6 
REMARK    7  A    between atoms: C5_8  and  O3_9 
ROOT
ATOM      1  C2  <0> d          -0.037   1.099  -2.490  0.00  0.00    -0.037 C 
ATOM      2  H4  <0> d           0.986   1.476  -2.498  0.00  0.00     0.036 H 
ATOM      3  H5  <0> d          -0.022   0.009  -2.496  0.00  0.00     0.036 H 
ENDROOT
BRANCH   1   4
ATOM      4  C1  <0> d          -0.753   1.593  -1.232  0.00  0.00    -0.043 C 
ATOM      5  H2  <0> d          -1.775   1.215  -1.224  0.00  0.00     0.036 H 
ATOM      6  H3  <0> d          -0.767   2.683  -1.226  0.00  0.00     0.036 H 
BRANCH   4   7
ATOM      7  C5  <0> d          -0.013   1.086   0.008  0.00  0.00     0.017 C 
ATOM      8  H10 <0> d           0.002  -0.004   0.002  0.00  0.00     0.073 H 
ATOM      9  H11 <0> d           1.010   1.463   0.000  0.00  0.00     0.073 H 
BRANCH   7  10
ATOM     10  O3  <0> d          -0.682   1.547   1.184  0.00  0.00    -0.401 OA
ATOM     11  H12 <0> d          -0.266   1.262   2.009  0.00  0.00     0.209 HD
ENDBRANCH   7  10
ENDBRANCH   4   7
ENDBRANCH   1   4
BRANCH   1  12
ATOM     12  C3  <0> d          -0.777   1.606  -3.730  0.00  0.00     0.056 C 
ATOM     13  H1  <0> d          -1.822   1.303  -3.678  0.00  0.00     0.086 H 
BRANCH  12  14
ATOM     14  C4  <0> d          -0.135   1.012  -4.985  0.00  0.00     0.040 C 
ATOM     15  H6  <0> d           0.884   1.386  -5.085  0.00  0.00     0.077 H 
ATOM     16  H7  <0> d          -0.117  -0.075  -4.904  0.00  0.00     0.077 H 
BRANCH  14  17
ATOM     17  O1  <0> d          -0.896   1.391  -6.134  0.00  0.00    -0.398 OA
ATOM     18  H8  <0> d          -0.546   1.048  -6.968  0.00  0.00     0.209 HD
ENDBRANCH  14  17
ENDBRANCH  12  14
BRANCH  12  19
ATOM     19  O2  <0> d          -0.696   3.032  -3.783  0.00  0.00    -0.393 OA
ATOM     20  H9  <0> d           0.208   3.373  -3.831  0.00  0.00     0.210 HD
ENDBRANCH  12  19
ENDBRANCH   1  12
TORSDOF 7
