REMARK  3 active torsions:
REMARK  status: ('A' for Active; 'I' for Inactive)
REMARK    1  A    between atoms: C1_1  and  C2_2 
REMARK    2  A    between atoms: C2_2  and  C3_3 
REMARK    3  A    between atoms: C4_4  and  N3_11 
ROOT
ATOM      1  C3  <0> d          -0.000   1.080   2.488  0.00  0.00     0.039 A 
ATOM      2  C4  <0> d           1.026   1.827   3.061  0.00  0.00     0.112 A 
ATOM      3  N1  <0> d           1.650   1.351   4.136  0.00  0.00    -0.306 N 
ATOM      4  C5  <0> d           1.306   0.186   4.658  0.00  0.00     0.259 A 
ATOM      5  N2  <0> d           0.336  -0.549   4.140  0.00  0.00    -0.298 N 
ATOM      6  C6  <0> d          -0.336  -0.136   3.069  0.00  0.00     0.192 A 
ATOM      7  O1  <0> d          -1.328  -0.896   2.545  0.00  0.00    -0.171 OA
ATOM      8  O2  <0> d           1.964  -0.267   5.752  0.00  0.00    -0.151 OA
ATOM      9  H6  <0> d           0.075  -1.516   4.595  0.00  0.00     0.171 HD
ATOM     10  H9  <0> d           2.461   1.940   4.590  0.00  0.00     0.171 HD
ENDROOT
BRANCH   1  11
ATOM     11  C2  <0> d          -0.729   1.579   1.267  0.00  0.00    -0.037 C 
ATOM     12  H4  <0> d          -0.744   2.679   1.273  0.00  0.00     0.040 H 
ATOM     13  H5  <0> d          -1.761   1.199   1.275  0.00  0.00     0.040 H 
BRANCH  11  14
ATOM     14  C1  <0> d          -0.013   1.086   0.008  0.00  0.00    -0.072 C 
ATOM     15  H1  <0> d          -0.545   1.450  -0.883  0.00  0.00     0.028 H 
ATOM     16  H2  <0> d           0.001  -0.014   0.002  0.00  0.00     0.028 H 
ATOM     17  H3  <0> d           1.019   1.466   0.000  0.00  0.00     0.028 H 
ENDBRANCH  11  14
ENDBRANCH   1  11
BRANCH   2  18
ATOM     18  N3  <0> d           1.393   3.049   2.519  0.00  0.00    -0.385 N 
ATOM     19  H8  <0> d           2.205   3.633   2.978  0.00  0.00     0.157 HD
ATOM     20  H7  <0> d           0.872   3.435   1.631  0.00  0.00     0.157 HD
ENDBRANCH   2  18
TORSDOF 3
