REMARK  9 active torsions:
REMARK  status: ('A' for Active; 'I' for Inactive)
REMARK    1  A    between atoms: C1_1  and  C2_2 
REMARK    2  A    between atoms: C2_2  and  C3_3 
REMARK    3  A    between atoms: C3_3  and  C4_4 
REMARK    4  A    between atoms: C4_4  and  C5_6 
REMARK    5  A    between atoms: C4_4  and  C6_7 
REMARK    6  A    between atoms: C6_7  and  C7_9 
REMARK    7  A    between atoms: C7_9  and  C8_11 
REMARK    8  A    between atoms: C7_9  and  C9_12 
REMARK    9  A    between atoms: C9_12  and  C10_13 
ROOT
ATOM      1  C4  <0> d           0.011   1.072   2.506  0.00  0.00     0.001 C 
ATOM      2  H1  <0> d           0.971   1.350   2.459  0.00  0.00     0.051 H 
ENDROOT
BRANCH   1   3
ATOM      3  C3  <0> d          -0.729   1.579   1.267  0.00  0.00    -0.056 C 
ATOM      4  H8  <0> d          -0.744   2.669   1.273  0.00  0.00     0.034 H 
ATOM      5  H9  <0> d          -1.751   1.202   1.275  0.00  0.00     0.034 H 
BRANCH   3   6
ATOM      6  C2  <0> d          -0.013   1.086   0.008  0.00  0.00    -0.068 C 
ATOM      7  H6  <0> d           0.002  -0.004   0.002  0.00  0.00     0.032 H 
ATOM      8  H7  <0> d           1.010   1.463   0.000  0.00  0.00     0.032 H 
BRANCH   6   9
ATOM      9  C1  <0> d          -0.753   1.593  -1.232  0.00  0.00    -0.076 C 
ATOM     10  H3  <0> d          -0.242   1.241  -2.128  0.00  0.00     0.027 H 
ATOM     11  H4  <0> d          -1.775   1.215  -1.224  0.00  0.00     0.027 H 
ATOM     12  H5  <0> d          -0.767   2.683  -1.226  0.00  0.00     0.027 H 
ENDBRANCH   6   9
ENDBRANCH   3   6
ENDBRANCH   1   3
BRANCH   1  13
ATOM     13  C5  <0> d          -0.075  -0.454   2.563  0.00  0.00    -0.066 C 
ATOM     14  H10 <0> d          -1.121  -0.757   2.615  0.00  0.00     0.028 H 
ATOM     15  H11 <0> d           0.381  -0.878   1.669  0.00  0.00     0.028 H 
ATOM     16  H12 <0> d           0.452  -0.815   3.446  0.00  0.00     0.028 H 
ENDBRANCH   1  13
BRANCH   1  17
ATOM     17  C6  <0> d          -0.621   1.658   3.743  0.00  0.00     0.134 C 
ATOM     18  O1  <0> d          -1.798   1.927   3.750  0.00  0.00    -0.297 OA
BRANCH  17  19
ATOM     19  C7  <0> d           0.217   1.908   4.971  0.00  0.00     0.000 C 
ATOM     20  H2  <0> d           0.961   1.241   5.008  0.00  0.00     0.051 H 
BRANCH  19  21
ATOM     21  C8  <0> d           0.801   3.321   4.910  0.00  0.00    -0.066 C 
ATOM     22  H13 <0> d          -0.010   4.048   4.870  0.00  0.00     0.028 H 
ATOM     23  H14 <0> d           1.407   3.502   5.798  0.00  0.00     0.028 H 
ATOM     24  H15 <0> d           1.422   3.420   4.020  0.00  0.00     0.028 H 
ENDBRANCH  19  21
BRANCH  19  25
ATOM     25  C9  <0> d          -0.655   1.769   6.220  0.00  0.00    -0.059 C 
ATOM     26  H16 <0> d          -1.413   2.553   6.223  0.00  0.00     0.033 H 
ATOM     27  H17 <0> d          -1.142   0.794   6.217  0.00  0.00     0.033 H 
BRANCH  25  28
ATOM     28  C10 <0> d           0.219   1.900   7.469  0.00  0.00    -0.076 C 
ATOM     29  H18 <0> d           0.976   1.116   7.466  0.00  0.00     0.027 H 
ATOM     30  H19 <0> d           0.705   2.875   7.472  0.00  0.00     0.027 H 
ATOM     31  H20 <0> d          -0.403   1.801   8.359  0.00  0.00     0.027 H 
ENDBRANCH  25  28
ENDBRANCH  19  25
ENDBRANCH  17  19
ENDBRANCH   1  17
TORSDOF 9
