REMARK  3 active torsions:
REMARK  status: ('A' for Active; 'I' for Inactive)
REMARK    1  A    between atoms: C1_1  and  C2_2 
REMARK    2  A    between atoms: C4_4  and  N3_10 
REMARK    3  A    between atoms: N1_5  and  N2_9 
ROOT
ATOM      1  C2  <0> d           1.224  -2.066  -0.020  0.00  0.00    -0.053 A 
ATOM      2  C3  <0> d           1.208  -0.672  -0.013  0.00  0.00    -0.034 A 
ATOM      3  C4  <0> d           0.002  -0.004   0.002  0.00  0.00     0.119 A 
ATOM      4  N1  <0> d          -1.171  -0.697   0.015  0.00  0.00    -0.229 N 
ATOM      5  C5  <0> d          -1.176  -2.043   0.003  0.00  0.00     0.264 A 
ATOM      6  O1  <0> d          -2.238  -2.646   0.011  0.00  0.00    -0.267 OA
ATOM      7  C6  <0> d           0.029  -2.754  -0.012  0.00  0.00    -0.010 A 
ATOM      8  H4  <0> d           2.135  -0.119  -0.019  0.00  0.00     0.090 H 
ATOM      9  H5  <0> d           0.023  -3.834  -0.017  0.00  0.00     0.092 H 
ENDROOT
BRANCH   1  10
ATOM     10  C1  <0> d           2.533  -2.813  -0.037  0.00  0.00    -0.051 C 
ATOM     11  H1  <0> d           2.859  -2.998   0.986  0.00  0.00     0.033 H 
ATOM     12  H2  <0> d           2.402  -3.763  -0.555  0.00  0.00     0.033 H 
ATOM     13  H3  <0> d           3.284  -2.217  -0.556  0.00  0.00     0.033 H 
ENDBRANCH   1  10
BRANCH   3  14
ATOM     14  N3  <0> d          -0.017   1.371   0.010  0.00  0.00    -0.384 N 
ATOM     15  H8  <0> d           0.817   1.868   0.004  0.00  0.00     0.157 HD
ATOM     16  H9  <0> d          -0.863   1.845   0.016  0.00  0.00     0.157 HD
ENDBRANCH   3  14
BRANCH   4  17
ATOM     17  N2  <0> d          -2.356  -0.017   0.035  0.00  0.00    -0.238 NA
ATOM     18  H6  <0> d          -3.138  -0.654   0.043  0.00  0.00     0.143 HD
ATOM     19  H7  <0> d          -2.397   0.615   0.821  0.00  0.00     0.143 HD
ENDBRANCH   4  17
TORSDOF 3
