REMARK  0 active torsions:
REMARK  status: ('A' for Active; 'I' for Inactive)
ROOT
ATOM      1  C1  <0> d           2.885   4.060   0.133  0.00  0.00    -0.065 C 
ATOM      2  C2  <0> d           3.593   3.628  -1.151  0.00  0.00    -0.064 C 
ATOM      3  C3  <0> d           3.552   2.102  -1.280  0.00  0.00    -0.055 C 
ATOM      4  C4  <0> d           2.094   1.645  -1.311  0.00  0.00     0.007 C 
ATOM      5  H1  <0> d           1.628   2.068  -2.088  0.00  0.00     0.052 H 
ATOM      6  C5  <0> d           1.414   2.055  -0.000  0.00  0.00    -0.044 C 
ATOM      7  H2  <0> d           1.962   1.629   0.840  0.00  0.00     0.041 H 
ATOM      8  C6  <0> d           1.432   3.578   0.115  0.00  0.00    -0.061 C 
ATOM      9  C7  <0> d          -0.019   1.527   0.010  0.00  0.00    -0.061 C 
ATOM     10  C8  <0> d           0.002  -0.004   0.002  0.00  0.00    -0.059 C 
ATOM     11  C9  <0> d           0.654  -0.507  -1.289  0.00  0.00    -0.009 C 
ATOM     12  C10 <0> d           2.014   0.142  -1.436  0.00  0.00     0.131 C 
ATOM     13  O1  <0> d           3.002  -0.520  -1.645  0.00  0.00    -0.298 OA
ATOM     14  H3  <0> d           2.905   5.147   0.209  0.00  0.00     0.033 H 
ATOM     15  H4  <0> d           3.400   3.628   0.992  0.00  0.00     0.033 H 
ATOM     16  H5  <0> d           3.092   4.077  -2.009  0.00  0.00     0.033 H 
ATOM     17  H6  <0> d           4.630   3.960  -1.123  0.00  0.00     0.033 H 
ATOM     18  H7  <0> d           4.058   1.650  -0.427  0.00  0.00     0.034 H 
ATOM     19  H8  <0> d           4.048   1.801  -2.203  0.00  0.00     0.034 H 
ATOM     20  H9  <0> d           0.913   4.015  -0.738  0.00  0.00     0.033 H 
ATOM     21  H10 <0> d           0.934   3.880   1.037  0.00  0.00     0.033 H 
ATOM     22  H11 <0> d          -0.546   1.888  -0.873  0.00  0.00     0.033 H 
ATOM     23  H12 <0> d          -0.529   1.878   0.907  0.00  0.00     0.033 H 
ATOM     24  H13 <0> d           0.571  -0.363   0.859  0.00  0.00     0.033 H 
ATOM     25  H14 <0> d          -1.019  -0.381   0.063  0.00  0.00     0.033 H 
ATOM     26  H15 <0> d           0.756  -1.501  -1.246  0.00  0.00     0.044 H 
ATOM     27  H16 <0> d           0.028  -0.244  -2.141  0.00  0.00     0.044 H 
ENDROOT
TORSDOF 0
