REMARK  4 active torsions:
REMARK  status: ('A' for Active; 'I' for Inactive)
REMARK    1  A    between atoms: C1_1  and  C2_2 
REMARK    2  A    between atoms: C2_2  and  C3_3 
REMARK    3  A    between atoms: C2_2  and  C4_4 
REMARK    4  A    between atoms: C4_4  and  C5_6 
ROOT
ATOM      1  C5  <0> d          -1.333   2.239   0.021  0.00  0.00     0.004 C 
ATOM      2  C6  <0> d          -1.847   2.385  -1.413  0.00  0.00    -0.055 C 
ATOM      3  C7  <0> d          -3.182   3.132  -1.403  0.00  0.00    -0.064 C 
ATOM      4  C8  <0> d          -2.986   4.519  -0.787  0.00  0.00    -0.065 C 
ATOM      5  C9  <0> d          -2.473   4.372   0.647  0.00  0.00    -0.064 C 
ATOM      6  C10 <0> d          -1.137   3.625   0.637  0.00  0.00    -0.055 C 
ATOM      7  H8  <0> d          -2.054   1.662   0.619  0.00  0.00     0.051 H 
ATOM      8  H9  <0> d          -1.115   2.951  -2.009  0.00  0.00     0.034 H 
ATOM      9  H10 <0> d          -1.988   1.389  -1.856  0.00  0.00     0.034 H 
ATOM     10  H11 <0> d          -3.551   3.238  -2.434  0.00  0.00     0.033 H 
ATOM     11  H12 <0> d          -3.914   2.567  -0.808  0.00  0.00     0.033 H 
ATOM     12  H13 <0> d          -2.254   5.085  -1.382  0.00  0.00     0.033 H 
ATOM     13  H14 <0> d          -3.946   5.056  -0.779  0.00  0.00     0.033 H 
ATOM     14  H15 <0> d          -2.332   5.369   1.090  0.00  0.00     0.033 H 
ATOM     15  H16 <0> d          -3.205   3.806   1.242  0.00  0.00     0.033 H 
ATOM     16  H17 <0> d          -0.768   3.519   1.668  0.00  0.00     0.034 H 
ATOM     17  H18 <0> d          -0.406   4.191   0.042  0.00  0.00     0.034 H 
ENDROOT
BRANCH   1  18
ATOM     18  C4  <0> d          -0.018   1.503   0.010  0.00  0.00     0.134 C 
ATOM     19  O1  <0> d           1.019   2.121   0.004  0.00  0.00    -0.297 OA
BRANCH  18  20
ATOM     20  C2  <0> d           0.002  -0.004   0.002  0.00  0.00    -0.003 C 
ATOM     21  H4  <0> d          -0.891  -0.371   0.530  0.00  0.00     0.050 H 
BRANCH  20  22
ATOM     22  C1  <0> d          -0.005  -0.506  -1.443  0.00  0.00    -0.067 C 
ATOM     23  H1  <0> d          -0.913  -0.149  -1.951  0.00  0.00     0.028 H 
ATOM     24  H2  <0> d           0.010  -1.606  -1.449  0.00  0.00     0.028 H 
ATOM     25  H3  <0> d           0.883  -0.125  -1.968  0.00  0.00     0.028 H 
ENDBRANCH  20  22
BRANCH  20  26
ATOM     26  C3  <0> d           1.265  -0.501   0.709  0.00  0.00    -0.067 C 
ATOM     27  H5  <0> d           1.270  -0.140   1.748  0.00  0.00     0.028 H 
ATOM     28  H6  <0> d           2.153  -0.119   0.184  0.00  0.00     0.028 H 
ATOM     29  H7  <0> d           1.280  -1.601   0.703  0.00  0.00     0.028 H 
ENDBRANCH  20  26
ENDBRANCH  18  20
ENDBRANCH   1  18
TORSDOF 4
