REMARK  2 active torsions:
REMARK  status: ('A' for Active; 'I' for Inactive)
REMARK    1  A    between atoms: N1_3  and  C6_8 
REMARK    2  A    between atoms: C6_8  and  C7_9 
ROOT
ATOM      1  C7  <0> d          -0.753   1.593  -1.232  0.00  0.00     0.030 C 
ATOM      2  C8  <0> d          -0.064   1.118  -2.443  0.00  0.00     0.060 C 
ATOM      3  N2  <0> d           0.468   0.752  -3.377  0.00  0.00    -0.197 NA
ATOM      4  H7  <0> d          -1.775   1.215  -1.224  0.00  0.00     0.057 H 
ATOM      5  H8  <0> d          -0.767   2.683  -1.226  0.00  0.00     0.057 H 
ENDROOT
BRANCH   1   6
ATOM      6  C6  <0> d          -0.013   1.086   0.008  0.00  0.00     0.010 C 
ATOM      7  H5  <0> d           0.002  -0.004   0.002  0.00  0.00     0.066 H 
ATOM      8  H6  <0> d           1.010   1.463   0.000  0.00  0.00     0.066 H 
BRANCH   6   9
ATOM      9  N1  <0> d          -0.698   1.558   1.213  0.00  0.00    -0.365 N 
ATOM     10  C2  <0> d          -1.679   0.797   1.760  0.00  0.00    -0.017 A 
ATOM     11  C1  <0> d          -2.330   1.205   2.871  0.00  0.00    -0.020 A 
ATOM     12  H2  <0> d          -1.941  -0.145   1.302  0.00  0.00     0.111 H 
ATOM     13  C5  <0> d          -1.979   2.440   3.464  0.00  0.00     0.174 A 
ATOM     14  H1  <0> d          -3.110   0.594   3.302  0.00  0.00     0.091 H 
ATOM     15  C4  <0> d          -0.952   3.211   2.869  0.00  0.00    -0.020 A 
ATOM     16  O1  <0> d          -2.551   2.835   4.469  0.00  0.00    -0.288 OA
ATOM     17  C3  <0> d          -0.335   2.744   1.761  0.00  0.00    -0.017 A 
ATOM     18  H4  <0> d          -0.661   4.158   3.298  0.00  0.00     0.091 H 
ATOM     19  H3  <0> d           0.453   3.325   1.304  0.00  0.00     0.111 H 
ENDBRANCH   6   9
ENDBRANCH   1   6
TORSDOF 2
