REMARK  4 active torsions:
REMARK  status: ('A' for Active; 'I' for Inactive)
REMARK    1  A    between atoms: C1_1  and  C2_2 
REMARK    2  A    between atoms: C2_2  and  C3_3 
REMARK    3  A    between atoms: C2_2  and  C4_4 
REMARK    4  A    between atoms: C2_2  and  C5_5 
ROOT
ATOM      1  C2  <0> d           1.448  -1.946  -0.438  0.00  0.00    -0.011 C 
ENDROOT
BRANCH   1   2
ATOM      2  C1  <0> d           0.206  -2.759  -0.067  0.00  0.00    -0.065 C 
ATOM      3  H1  <0> d          -0.097  -2.517   0.962  0.00  0.00     0.028 H 
ATOM      4  H2  <0> d           0.436  -3.833  -0.139  0.00  0.00     0.028 H 
ATOM      5  H3  <0> d          -0.613  -2.512  -0.758  0.00  0.00     0.028 H 
ENDBRANCH   1   2
BRANCH   1   6
ATOM      6  C3  <0> d           1.870  -2.283  -1.869  0.00  0.00    -0.065 C 
ATOM      7  H4  <0> d           2.763  -1.698  -2.135  0.00  0.00     0.028 H 
ATOM      8  H5  <0> d           1.051  -2.036  -2.561  0.00  0.00     0.028 H 
ATOM      9  H6  <0> d           2.100  -3.356  -1.941  0.00  0.00     0.028 H 
ENDBRANCH   1   6
BRANCH   1  10
ATOM     10  C4  <0> d           2.588  -2.289   0.524  0.00  0.00    -0.065 C 
ATOM     11  H7  <0> d           3.481  -1.705   0.258  0.00  0.00     0.028 H 
ATOM     12  H8  <0> d           2.818  -3.363   0.452  0.00  0.00     0.028 H 
ATOM     13  H9  <0> d           2.285  -2.047   1.553  0.00  0.00     0.028 H 
ENDBRANCH   1  10
BRANCH   1  14
ATOM     14  C5  <0> d           1.134  -0.476  -0.339  0.00  0.00     0.014 C 
ATOM     15  C8  <0> d           2.123   0.631  -0.632  0.00  0.00    -0.026 C 
ATOM     16  C7  <0> d           1.470   1.885  -0.002  0.00  0.00    -0.044 C 
ATOM     17  H14 <0> d           3.091   0.389  -0.171  0.00  0.00     0.042 H 
ATOM     18  H15 <0> d           2.250   0.730  -1.720  0.00  0.00     0.042 H 
ATOM     19  C6  <0> d          -0.018   1.463   0.010  0.00  0.00     0.015 C 
ATOM     20  H12 <0> d           1.588   2.796  -0.608  0.00  0.00     0.035 H 
ATOM     21  H13 <0> d           1.803   2.085   1.027  0.00  0.00     0.035 H 
ATOM     22  N1  <0> d           0.002  -0.004   0.002  0.00  0.00    -0.298 NA
ATOM     23  H10 <0> d          -0.550   1.827  -0.881  0.00  0.00     0.067 H 
ATOM     24  H11 <0> d          -0.533   1.818   0.915  0.00  0.00     0.067 H 
ENDBRANCH   1  14
TORSDOF 4
