REMARK  5 active torsions:
REMARK  status: ('A' for Active; 'I' for Inactive)
REMARK    1  A    between atoms: C1_1  and  C2_2 
REMARK    2  A    between atoms: C2_2  and  C3_3 
REMARK    3  A    between atoms: C8_9  and  C9_10 
REMARK    4  A    between atoms: C8_9  and  O1_12 
REMARK    5  A    between atoms: C9_10  and  C10_11 
ROOT
ATOM      1  C3  <0> d          -2.904   1.556   0.038  0.00  0.00    -0.025 C 
ATOM      2  H1  <0> d          -2.919   2.646   0.044  0.00  0.00     0.044 H 
ATOM      3  C4  <0> d          -2.188   1.063  -1.221  0.00  0.00    -0.059 C 
ATOM      4  C5  <0> d          -0.753   1.593  -1.232  0.00  0.00    -0.065 C 
ATOM      5  C6  <0> d          -0.013   1.086   0.008  0.00  0.00    -0.062 C 
ATOM      6  C7  <0> d          -0.729   1.579   1.267  0.00  0.00    -0.036 C 
ATOM      7  C8  <0> d          -2.164   1.050   1.278  0.00  0.00     0.061 C 
ATOM      8  H7  <0> d          -2.715   1.424  -2.104  0.00  0.00     0.033 H 
ATOM      9  H8  <0> d          -2.173  -0.027  -1.227  0.00  0.00     0.033 H 
ATOM     10  H9  <0> d          -0.767   2.683  -1.226  0.00  0.00     0.033 H 
ATOM     11  H10 <0> d          -0.242   1.241  -2.128  0.00  0.00     0.033 H 
ATOM     12  H11 <0> d           0.002  -0.004   0.002  0.00  0.00     0.033 H 
ATOM     13  H12 <0> d           1.010   1.463   0.000  0.00  0.00     0.033 H 
ATOM     14  H13 <0> d          -0.202   1.218   2.150  0.00  0.00     0.037 H 
ATOM     15  H14 <0> d          -0.744   2.669   1.273  0.00  0.00     0.037 H 
ENDROOT
BRANCH   7  16
ATOM     16  C9  <0> d          -2.880   1.543   2.537  0.00  0.00    -0.039 C 
ATOM     17  H15 <0> d          -2.974   2.628   2.499  0.00  0.00     0.036 H 
ATOM     18  H16 <0> d          -3.872   1.095   2.590  0.00  0.00     0.036 H 
BRANCH  16  19
ATOM     19  C10 <0> d          -2.073   1.142   3.773  0.00  0.00    -0.074 C 
ATOM     20  H17 <0> d          -2.583   1.494   4.670  0.00  0.00     0.027 H 
ATOM     21  H18 <0> d          -1.980   0.057   3.810  0.00  0.00     0.027 H 
ATOM     22  H19 <0> d          -1.081   1.591   3.720  0.00  0.00     0.027 H 
ENDBRANCH  16  19
ENDBRANCH   7  16
BRANCH   7  23
ATOM     23  O1  <0> d          -2.145  -0.379   1.270  0.00  0.00    -0.389 OA
ATOM     24  H20 <0> d          -1.691  -0.771   2.029  0.00  0.00     0.210 HD
ENDBRANCH   7  23
BRANCH   1  25
ATOM     25  C2  <0> d          -4.340   1.027   0.049  0.00  0.00    -0.062 C 
ATOM     26  H5  <0> d          -4.327  -0.059  -0.046  0.00  0.00     0.033 H 
ATOM     27  H6  <0> d          -4.822   1.304   0.987  0.00  0.00     0.033 H 
BRANCH  25  28
ATOM     28  C1  <0> d          -5.116   1.633  -1.122  0.00  0.00    -0.076 C 
ATOM     29  H2  <0> d          -5.128   2.719  -1.026  0.00  0.00     0.027 H 
ATOM     30  H3  <0> d          -4.633   1.356  -2.059  0.00  0.00     0.027 H 
ATOM     31  H4  <0> d          -6.138   1.256  -1.114  0.00  0.00     0.027 H 
ENDBRANCH  25  28
ENDBRANCH   1  25
TORSDOF 5
