REMARK  2 active torsions:
REMARK  status: ('A' for Active; 'I' for Inactive)
REMARK    1  A    between atoms: C1_1  and  C2_2 
REMARK    2  A    between atoms: C4_5  and  N3_9 
ROOT
ATOM      1  C2  <0> d           0.002  -0.004   0.002  0.00  0.00     0.104 A 
ATOM      2  N1  <0> d          -1.167  -0.678   0.004  0.00  0.00    -0.310 N 
ATOM      3  C3  <0> d          -1.167  -2.028  -0.004  0.00  0.00     0.276 A 
ATOM      4  C4  <0> d           0.075  -2.704  -0.014  0.00  0.00     0.135 A 
ATOM      5  C5  <0> d           1.223  -1.960  -0.015  0.00  0.00     0.159 A 
ATOM      6  N2  <0> d           1.150  -0.625  -0.012  0.00  0.00    -0.221 NA
ATOM      7 Cl1  <0> d           2.771  -2.747  -0.027  0.00  0.00    -0.060 Cl
ATOM      8  O1  <0> d          -2.216  -2.652  -0.002  0.00  0.00    -0.266 OA
ATOM      9  H6  <0> d          -2.007  -0.193   0.011  0.00  0.00     0.170 HD
ENDROOT
BRANCH   1  10
ATOM     10  C1  <0> d          -0.018   1.503   0.010  0.00  0.00    -0.021 C 
ATOM     11  H1  <0> d           1.004   1.880   0.003  0.00  0.00     0.037 H 
ATOM     12  H2  <0> d          -0.545   1.864  -0.873  0.00  0.00     0.037 H 
ATOM     13  H3  <0> d          -0.529   1.854   0.907  0.00  0.00     0.037 H 
ENDBRANCH   1  10
BRANCH   4  14
ATOM     14  N3  <0> d           0.129  -4.106  -0.022  0.00  0.00    -0.392 N 
ATOM     15  H4  <0> d          -0.691  -4.623  -0.020  0.00  0.00     0.156 HD
ATOM     16  H5  <0> d           0.987  -4.558  -0.029  0.00  0.00     0.156 HD
ENDBRANCH   4  14
TORSDOF 2
