REMARK  1 active torsions:
REMARK  status: ('A' for Active; 'I' for Inactive)
REMARK    1  A    between atoms: C3_3  and  C7_9 
REMARK       I    between atoms: C7_9  and  N3_11 
ROOT
ATOM      1  C1  <0> d          -0.013   1.076   0.008  0.00  0.00    -0.065 A 
ATOM      2  C2  <0> d          -1.218   1.757   0.017  0.00  0.00    -0.063 A 
ATOM      3  C3  <0> d          -1.191   3.155   0.029  0.00  0.00     0.071 A 
ATOM      4  C4  <0> d           0.054   3.808   0.021  0.00  0.00     0.151 A 
ATOM      5  N1  <0> d           1.179   3.107   0.007  0.00  0.00    -0.249 NA
ATOM      6  C5  <0> d           1.174   1.790   0.001  0.00  0.00     0.004 A 
ATOM      7  C6  <0> d           0.107   5.239   0.028  0.00  0.00     0.120 C 
ATOM      8  N2  <0> d           0.150   6.375   0.033  0.00  0.00    -0.190 NA
ATOM      9  H1  <0> d           0.002  -0.004   0.002  0.00  0.00     0.085 H 
ATOM     10  H2  <0> d          -2.156   1.222   0.019  0.00  0.00     0.085 H 
ATOM     11  H3  <0> d           2.114   1.257  -0.011  0.00  0.00     0.114 H 
ENDROOT
BRANCH   3  12
ATOM     12  C7  <0> d          -2.449   3.932   0.044  0.00  0.00     0.252 C 
ATOM     13  O1  <0> d          -2.413   5.147   0.050  0.00  0.00    -0.268 OA
ATOM     14  N3  <0> d          -3.636   3.293   0.052  0.00  0.00    -0.366 N 
ATOM     15  H4  <0> d          -4.571   3.871   0.063  0.00  0.00     0.159 HD
ATOM     16  H5  <0> d          -3.668   2.193   0.046  0.00  0.00     0.159 HD
ENDBRANCH   3  12
TORSDOF 1
