REMARK  2 active torsions:
REMARK  status: ('A' for Active; 'I' for Inactive)
REMARK    1  A    between atoms: C3_3  and  C4_4 
REMARK    2  A    between atoms: C4_4  and  C5_6 
ROOT
ATOM      1  C5  <0> d          -0.018   1.503   0.010  0.00  0.00     0.070 C 
ATOM      2  C6  <0> d          -0.707   1.978   1.221  0.00  0.00     0.066 C 
ATOM      3  N1  <0> d          -1.239   2.344   2.156  0.00  0.00    -0.197 NA
ATOM      4  H6  <0> d           1.014   1.884   0.003  0.00  0.00     0.066 H 
ATOM      5  H7  <0> d          -0.550   1.867  -0.881  0.00  0.00     0.066 H 
ENDROOT
BRANCH   1   6
ATOM      6  C4  <0> d           0.002  -0.004   0.002  0.00  0.00     0.143 C 
ATOM      7  O1  <0> d          -0.504  -0.620   0.909  0.00  0.00    -0.297 OA
BRANCH   6   8
ATOM      8  C3  <0> d           0.654  -0.743  -1.139  0.00  0.00     0.005 A 
ATOM      9  C1  <0> d          -0.087  -1.952  -1.712  0.00  0.00    -0.055 A 
ATOM     10  C2  <0> d           1.169  -2.156  -0.862  0.00  0.00    -0.055 A 
ATOM     11  H1  <0> d          -1.118  -1.965  -1.331  0.00  0.00     0.034 H 
ATOM     12  H2  <0> d          -0.103  -1.885  -2.810  0.00  0.00     0.034 H 
ATOM     13  H3  <0> d           0.918  -2.759   0.023  0.00  0.00     0.034 H 
ATOM     14  H4  <0> d           1.933  -2.679  -1.456  0.00  0.00     0.034 H 
ATOM     15  H5  <0> d           1.084   0.182  -1.552  0.00  0.00     0.051 H 
ENDBRANCH   6   8
ENDBRANCH   1   6
TORSDOF 2
