REMARK  1 active torsions:
REMARK  status: ('A' for Active; 'I' for Inactive)
REMARK    1  A    between atoms: C4_4  and  C7_7 
ROOT
ATOM      1  C1  <0> d          -2.605   2.696   2.997  0.00  0.00    -0.083 A 
ATOM      2  C2  <0> d          -2.319   1.343   2.986  0.00  0.00    -0.082 A 
ATOM      3  C3  <0> d          -1.480   0.822   2.019  0.00  0.00    -0.076 A 
ATOM      4  C4  <0> d          -0.927   1.654   1.062  0.00  0.00    -0.053 A 
ATOM      5  C5  <0> d          -1.210   3.007   1.077  0.00  0.00    -0.076 A 
ATOM      6  C6  <0> d          -2.052   3.527   2.041  0.00  0.00    -0.082 A 
ATOM      7  H1  <0> d          -3.261   3.103   3.753  0.00  0.00     0.083 H 
ATOM      8  H2  <0> d          -2.751   0.694   3.733  0.00  0.00     0.083 H 
ATOM      9  H3  <0> d          -1.256  -0.234   2.010  0.00  0.00     0.084 H 
ATOM     10  H4  <0> d          -0.775   3.657   0.332  0.00  0.00     0.084 H 
ATOM     11  H5  <0> d          -2.276   4.583   2.050  0.00  0.00     0.083 H 
ENDROOT
BRANCH   4  12
ATOM     12  C7  <0> d          -0.013   1.086   0.008  0.00  0.00    -0.016 C 
ATOM     13  C10 <0> d           1.388   1.722  -0.002  0.00  0.00    -0.002 C 
ATOM     14  C9  <0> d           1.299   1.687  -1.515  0.00  0.00     0.128 C 
ATOM     15  H9  <0> d           1.367   2.582   0.509  0.00  0.00     0.045 H 
ATOM     16  H10 <0> d           2.165   1.076   0.406  0.00  0.00     0.045 H 
ATOM     17  C8  <0> d          -0.211   1.708  -1.385  0.00  0.00    -0.002 C 
ATOM     18  O1  <0> d           2.088   1.657  -2.428  0.00  0.00    -0.298 OA
ATOM     19  H7  <0> d          -0.797   1.113  -1.935  0.00  0.00     0.045 H 
ATOM     20  H8  <0> d          -0.634   2.712  -1.359  0.00  0.00     0.045 H 
ATOM     21  H6  <0> d           0.002  -0.004   0.002  0.00  0.00     0.048 H 
ENDBRANCH   4  12
TORSDOF 1
