REMARK  8 active torsions:
REMARK  status: ('A' for Active; 'I' for Inactive)
REMARK    1  A    between atoms: C1_1  and  C2_2 
REMARK    2  A    between atoms: C2_2  and  C3_3 
REMARK    3  A    between atoms: C2_2  and  C4_4 
REMARK    4  A    between atoms: C2_2  and  O1_5 
REMARK    5  A    between atoms: O1_5  and  C5_6 
REMARK    6  A    between atoms: C5_6  and  C6_7 
REMARK    7  A    between atoms: C5_6  and  C7_8 
REMARK    8  A    between atoms: C5_6  and  C8_9 
ROOT
ATOM      1  O1  <0> d          -1.157   2.474   1.333  0.00  0.00    -0.371 OA
ENDROOT
BRANCH   1   2
ATOM      2  C2  <0> d          -1.197   1.058   1.145  0.00  0.00     0.051 C 
BRANCH   2   3
ATOM      3  C1  <0> d          -0.113   0.399   2.000  0.00  0.00    -0.048 C 
ATOM      4  H1  <0> d           0.151   1.061   2.825  0.00  0.00     0.031 H 
ATOM      5  H2  <0> d          -0.488  -0.545   2.398  0.00  0.00     0.031 H 
ATOM      6  H3  <0> d           0.769   0.210   1.388  0.00  0.00     0.031 H 
ENDBRANCH   2   3
BRANCH   2   7
ATOM      7  C3  <0> d          -2.570   0.526   1.562  0.00  0.00    -0.048 C 
ATOM      8  H4  <0> d          -3.341   0.996   0.952  0.00  0.00     0.031 H 
ATOM      9  H5  <0> d          -2.600  -0.554   1.418  0.00  0.00     0.031 H 
ATOM     10  H6  <0> d          -2.745   0.758   2.612  0.00  0.00     0.031 H 
ENDBRANCH   2   7
BRANCH   2  11
ATOM     11  C4  <0> d          -0.950   0.732  -0.330  0.00  0.00    -0.048 C 
ATOM     12  H7  <0> d           0.105   0.877  -0.563  0.00  0.00     0.031 H 
ATOM     13  H8  <0> d          -1.226  -0.304  -0.524  0.00  0.00     0.031 H 
ATOM     14  H9  <0> d          -1.554   1.392  -0.953  0.00  0.00     0.031 H 
ENDBRANCH   2  11
ENDBRANCH   1   2
BRANCH   1  15
ATOM     15  C5  <0> d          -0.104   3.126   0.620  0.00  0.00     0.051 C 
BRANCH  15  16
ATOM     16  C6  <0> d          -0.398   3.078  -0.880  0.00  0.00    -0.048 C 
ATOM     17  H10 <0> d          -1.473   3.161  -1.043  0.00  0.00     0.031 H 
ATOM     18  H11 <0> d           0.109   3.905  -1.377  0.00  0.00     0.031 H 
ATOM     19  H12 <0> d          -0.041   2.134  -1.291  0.00  0.00     0.031 H 
ENDBRANCH  15  16
BRANCH  15  20
ATOM     20  C7  <0> d          -0.006   4.583   1.075  0.00  0.00    -0.048 C 
ATOM     21  H13 <0> d           0.204   4.617   2.144  0.00  0.00     0.031 H 
ATOM     22  H14 <0> d           0.797   5.080   0.531  0.00  0.00     0.031 H 
ATOM     23  H15 <0> d          -0.950   5.090   0.874  0.00  0.00     0.031 H 
ENDBRANCH  15  20
BRANCH  15  24
ATOM     24  C8  <0> d           1.220   2.413   0.903  0.00  0.00    -0.048 C 
ATOM     25  H16 <0> d           1.391   1.648   0.145  0.00  0.00     0.031 H 
ATOM     26  H17 <0> d           2.035   3.137   0.878  0.00  0.00     0.031 H 
ATOM     27  H18 <0> d           1.179   1.946   1.887  0.00  0.00     0.031 H 
ENDBRANCH  15  24
ENDBRANCH   1  15
TORSDOF 8
