REMARK  1 active torsions:
REMARK  status: ('A' for Active; 'I' for Inactive)
REMARK    1  A    between atoms: N3_5  and  N4_6 
ROOT
ATOM      1  C1  <0> d          -0.013   1.076   0.008  0.00  0.00     0.111 A 
ATOM      2  N1  <0> d          -1.074   1.835   0.017  0.00  0.00    -0.142 NA
ATOM      3  N2  <0> d          -0.722   3.072   0.025  0.00  0.00    -0.142 NA
ATOM      4  C2  <0> d           0.580   3.158   0.013  0.00  0.00     0.111 A 
ATOM      5  N3  <0> d           1.068   1.894   0.002  0.00  0.00    -0.215 N 
ATOM      6  H1  <0> d           0.002  -0.004   0.002  0.00  0.00     0.149 H 
ATOM      7  H2  <0> d           1.162   4.068   0.013  0.00  0.00     0.149 H 
ENDROOT
BRANCH   5   8
ATOM      8  N4  <0> d           2.415   1.510  -0.014  0.00  0.00    -0.137 N 
ATOM      9  N7  <0> d           2.868   0.302  -0.019  0.00  0.00    -0.023 NA
ATOM     10  N6  <0> d           4.154   0.341  -0.038  0.00  0.00    -0.022 NA
ATOM     11  N5  <0> d           4.545   1.569  -0.034  0.00  0.00    -0.120 NA
ATOM     12  C3  <0> d           3.481   2.333  -0.019  0.00  0.00     0.131 A 
ATOM     13  H3  <0> d           3.462   3.412  -0.013  0.00  0.00     0.152 H 
ENDBRANCH   5   8
TORSDOF 1
