REMARK  4 active torsions:
REMARK  status: ('A' for Active; 'I' for Inactive)
REMARK    1  A    between atoms: C1_1  and  C2_2 
REMARK    2  A    between atoms: C2_2  and  C10_11 
REMARK    3  A    between atoms: C6_6  and  C8_9 
REMARK    4  A    between atoms: C6_6  and  C9_10 
ROOT
ATOM      1  C2  <0> d          -1.395   1.194  -0.352  0.00  0.00     0.014 C 
ATOM      2  C3  <0> d          -1.986   2.117   0.725  0.00  0.00    -0.052 C 
ATOM      3  C4  <0> d          -1.197   3.427   0.757  0.00  0.00    -0.063 C 
ATOM      4  C5  <0> d           0.248   3.152   1.174  0.00  0.00    -0.052 C 
ATOM      5  C6  <0> d           0.923   2.268   0.120  0.00  0.00     0.014 C 
ATOM      6  C7  <0> d           0.082   1.025  -0.074  0.00  0.00     0.142 C 
ATOM      7  O1  <0> d           0.579  -0.074  -0.013  0.00  0.00    -0.296 OA
ATOM      8  H4  <0> d          -1.924   1.631   1.698  0.00  0.00     0.034 H 
ATOM      9  H5  <0> d          -3.030   2.327   0.489  0.00  0.00     0.034 H 
ATOM     10  H6  <0> d          -1.657   4.109   1.472  0.00  0.00     0.033 H 
ATOM     11  H7  <0> d          -1.208   3.882  -0.234  0.00  0.00     0.033 H 
ATOM     12  H8  <0> d           0.258   2.641   2.137  0.00  0.00     0.034 H 
ATOM     13  H9  <0> d           0.788   4.095   1.257  0.00  0.00     0.034 H 
ENDROOT
BRANCH   1  14
ATOM     14  C1  <0> d          -1.589   1.821  -1.735  0.00  0.00    -0.063 C 
ATOM     15  H1  <0> d          -0.934   1.327  -2.453  0.00  0.00     0.029 H 
ATOM     16  H2  <0> d          -2.627   1.699  -2.046  0.00  0.00     0.029 H 
ATOM     17  H3  <0> d          -1.345   2.882  -1.690  0.00  0.00     0.029 H 
ENDBRANCH   1  14
BRANCH   1  18
ATOM     18  C10 <0> d          -2.087  -0.169  -0.300  0.00  0.00    -0.063 C 
ATOM     19  H16 <0> d          -1.953  -0.607   0.690  0.00  0.00     0.029 H 
ATOM     20  H17 <0> d          -3.151  -0.044  -0.500  0.00  0.00     0.029 H 
ATOM     21  H18 <0> d          -1.651  -0.828  -1.050  0.00  0.00     0.029 H 
ENDBRANCH   1  18
BRANCH   5  22
ATOM     22  C8  <0> d           2.321   1.873   0.599  0.00  0.00    -0.063 C 
ATOM     23  H10 <0> d           2.792   1.230  -0.145  0.00  0.00     0.029 H 
ATOM     24  H11 <0> d           2.924   2.770   0.738  0.00  0.00     0.029 H 
ATOM     25  H12 <0> d           2.243   1.337   1.545  0.00  0.00     0.029 H 
ENDBRANCH   5  22
BRANCH   5  26
ATOM     26  C9  <0> d           1.024   3.031  -1.202  0.00  0.00    -0.063 C 
ATOM     27  H13 <0> d           0.063   3.490  -1.431  0.00  0.00     0.029 H 
ATOM     28  H14 <0> d           1.786   3.806  -1.117  0.00  0.00     0.029 H 
ATOM     29  H15 <0> d           1.296   2.340  -2.000  0.00  0.00     0.029 H 
ENDBRANCH   5  26
TORSDOF 4
