REMARK  3 active torsions:
REMARK  status: ('A' for Active; 'I' for Inactive)
REMARK    1  A    between atoms: C4_4  and  N1_7 
REMARK    2  A    between atoms: N1_7  and  C7_8 
REMARK    3  A    between atoms: C7_8  and  C8_9 
ROOT
ATOM      1  N1  <0> d          -0.017   1.393   0.010  0.00  0.00    -0.390 N 
ATOM      2  H6  <0> d          -0.977   1.929   0.022  0.00  0.00     0.159 HD
ENDROOT
BRANCH   1   3
ATOM      3  C4  <0> d           0.002  -0.004   0.002  0.00  0.00     0.027 A 
ATOM      4  C3  <0> d          -1.190  -0.717   0.010  0.00  0.00    -0.058 A 
ATOM      5  C2  <0> d          -1.168  -2.097   0.002  0.00  0.00    -0.081 A 
ATOM      6  H3  <0> d          -2.134  -0.191   0.021  0.00  0.00     0.086 H 
ATOM      7  C1  <0> d           0.040  -2.771  -0.014  0.00  0.00    -0.083 A 
ATOM      8  H2  <0> d          -2.095  -2.652   0.008  0.00  0.00     0.083 H 
ATOM      9  C6  <0> d           1.229  -2.065  -0.022  0.00  0.00    -0.081 A 
ATOM     10  H1  <0> d           0.054  -3.851  -0.020  0.00  0.00     0.083 H 
ATOM     11  C5  <0> d           1.213  -0.684  -0.019  0.00  0.00    -0.058 A 
ATOM     12  H5  <0> d           2.170  -2.594  -0.034  0.00  0.00     0.083 H 
ATOM     13  H4  <0> d           2.142  -0.133  -0.029  0.00  0.00     0.086 H 
ENDBRANCH   1   3
BRANCH   1  14
ATOM     14  C7  <0> d           1.242   2.142   0.002  0.00  0.00    -0.004 C 
ATOM     15  H7  <0> d           1.831   1.879   0.893  0.00  0.00     0.064 H 
ATOM     16  H8  <0> d           1.814   1.889  -0.903  0.00  0.00     0.064 H 
BRANCH  14  17
ATOM     17  C8  <0> d           0.942   3.643   0.013  0.00  0.00    -0.039 A 
ATOM     18  C10 <0> d           2.130   4.600   0.125  0.00  0.00    -0.060 A 
ATOM     19  C9  <0> d           1.383   4.460  -1.203  0.00  0.00    -0.060 A 
ATOM     20  H12 <0> d           1.919   5.358   0.893  0.00  0.00     0.033 H 
ATOM     21  H13 <0> d           3.031   4.035   0.406  0.00  0.00     0.033 H 
ATOM     22  H10 <0> d           1.666   3.779  -2.019  0.00  0.00     0.033 H 
ATOM     23  H11 <0> d           0.554   5.103  -1.533  0.00  0.00     0.033 H 
ATOM     24  H9  <0> d          -0.004   3.508   0.559  0.00  0.00     0.042 H 
ENDBRANCH  14  17
ENDBRANCH   1  14
TORSDOF 3
