REMARK  1 active torsions:
REMARK  status: ('A' for Active; 'I' for Inactive)
REMARK    1  A    between atoms: C1_1  and  C2_2 
REMARK       I    between atoms: C2_2  and  N1_4 
ROOT
ATOM      1  C2  <0> d           2.803   2.229   2.011  0.00  0.00     0.215 C 
ATOM      2  O1  <0> d           3.404   1.722   2.935  0.00  0.00    -0.274 OA
ATOM      3  N1  <0> d           2.151   1.453   1.124  0.00  0.00    -0.352 N 
ATOM      4  C3  <0> d           1.420   2.052  -0.001  0.00  0.00    -0.001 C 
ATOM      5  C4  <0> d          -0.019   1.526   0.010  0.00  0.00    -0.035 C 
ATOM      6  C5  <0> d           0.002  -0.004   0.002  0.00  0.00     0.033 C 
ATOM      7  C6  <0> d           0.712  -0.513   1.258  0.00  0.00    -0.035 C 
ATOM      8  C7  <0> d           2.159  -0.010   1.262  0.00  0.00    -0.001 C 
ATOM      9  C8  <0> d          -1.379  -0.513  -0.021  0.00  0.00     0.064 C 
ATOM     10  N2  <0> d          -2.445  -0.906  -0.039  0.00  0.00    -0.197 NA
ATOM     11  H4  <0> d           1.902   1.778  -0.939  0.00  0.00     0.064 H 
ATOM     12  H5  <0> d           1.413   3.137   0.105  0.00  0.00     0.064 H 
ATOM     13  H6  <0> d          -0.545   1.888  -0.873  0.00  0.00     0.037 H 
ATOM     14  H7  <0> d          -0.528   1.878   0.907  0.00  0.00     0.037 H 
ATOM     15  H8  <0> d           0.533  -0.355  -0.883  0.00  0.00     0.062 H 
ATOM     16  H9  <0> d           0.196  -0.142   2.144  0.00  0.00     0.037 H 
ATOM     17  H10 <0> d           0.706  -1.603   1.264  0.00  0.00     0.037 H 
ATOM     18  H11 <0> d           2.640  -0.286   2.200  0.00  0.00     0.064 H 
ATOM     19  H12 <0> d           2.702  -0.453   0.427  0.00  0.00     0.064 H 
ENDROOT
BRANCH   1  20
ATOM     20  C1  <0> d           2.786   3.728   1.856  0.00  0.00    -0.003 C 
ATOM     21  H1  <0> d           1.757   4.086   1.899  0.00  0.00     0.040 H 
ATOM     22  H2  <0> d           3.363   4.184   2.662  0.00  0.00     0.040 H 
ATOM     23  H3  <0> d           3.226   3.999   0.896  0.00  0.00     0.040 H 
ENDBRANCH   1  20
TORSDOF 1
