REMARK  4 active torsions:
REMARK  status: ('A' for Active; 'I' for Inactive)
REMARK    1  A    between atoms: C1_1  and  C2_2 
REMARK    2  A    between atoms: C2_2  and  O1_3 
REMARK    3  A    between atoms: O1_3  and  C3_4 
REMARK    4  A    between atoms: C4_5  and  C5_6 
ROOT
ATOM      1  C5  <0> d           0.002  -0.004   0.002  0.00  0.00    -0.088 C 
ATOM      2  C6  <0> d           0.018  -1.178  -0.004  0.00  0.00    -0.150 C 
ATOM      3  H8  <0> d           0.032  -2.228  -0.010  0.00  0.00     0.166 H 
ENDROOT
BRANCH   1   4
ATOM      4  C4  <0> d          -0.017   1.428   0.010  0.00  0.00    -0.013 C 
ATOM      5  C3  <0> d          -1.184   2.080   0.019  0.00  0.00     0.020 C 
ATOM      6  H6  <0> d          -2.112   1.528   0.020  0.00  0.00     0.123 H 
ATOM      7  H7  <0> d           0.910   1.980   0.004  0.00  0.00     0.100 H 
BRANCH   5   8
ATOM      8  O1  <0> d          -1.202   3.435   0.026  0.00  0.00    -0.363 OA
BRANCH   8   9
ATOM      9  C2  <0> d          -2.484   4.066   0.036  0.00  0.00     0.022 C 
ATOM     10  H4  <0> d          -3.042   3.771  -0.853  0.00  0.00     0.074 H 
ATOM     11  H5  <0> d          -3.033   3.761   0.927  0.00  0.00     0.074 H 
BRANCH   9  12
ATOM     12  C1  <0> d          -2.304   5.585   0.043  0.00  0.00    -0.056 C 
ATOM     13  H1  <0> d          -1.756   5.891  -0.848  0.00  0.00     0.030 H 
ATOM     14  H2  <0> d          -3.282   6.067   0.051  0.00  0.00     0.030 H 
ATOM     15  H3  <0> d          -1.747   5.881   0.932  0.00  0.00     0.030 H 
ENDBRANCH   9  12
ENDBRANCH   8   9
ENDBRANCH   5   8
ENDBRANCH   1   4
TORSDOF 4
