REMARK  1 active torsions:
REMARK  status: ('A' for Active; 'I' for Inactive)
REMARK    1  A    between atoms: C4_4  and  N1_8 
ROOT
ATOM      1  C1  <0> d          -0.013   1.076   0.008  0.00  0.00    -0.078 A 
ATOM      2  C2  <0> d           1.177   1.782   0.000  0.00  0.00    -0.043 A 
ATOM      3  C3  <0> d           1.162   3.164   0.008  0.00  0.00     0.144 A 
ATOM      4  C4  <0> d          -0.051   3.845   0.023  0.00  0.00     0.086 A 
ATOM      5  C5  <0> d          -1.243   3.131   0.030  0.00  0.00     0.063 A 
ATOM      6  C6  <0> d          -1.220   1.749   0.017  0.00  0.00    -0.059 A 
ATOM      7 Cl1  <0> d          -2.760   3.975   0.048  0.00  0.00    -0.082 Cl
ATOM      8  F1  <0> d           2.324   3.854   0.002  0.00  0.00    -0.204 F 
ATOM      9  H1  <0> d           0.002  -0.004   0.002  0.00  0.00     0.083 H 
ATOM     10  H2  <0> d           2.118   1.253  -0.011  0.00  0.00     0.088 H 
ATOM     11  H3  <0> d          -2.147   1.194   0.019  0.00  0.00     0.086 H 
ENDROOT
BRANCH   4  12
ATOM     12  N1  <0> d          -0.071   5.244   0.031  0.00  0.00    -0.395 N 
ATOM     13  H4  <0> d           0.762   5.740   0.026  0.00  0.00     0.156 HD
ATOM     14  H5  <0> d          -0.918   5.717   0.041  0.00  0.00     0.156 HD
ENDBRANCH   4  12
TORSDOF 1
