REMARK  2 active torsions:
REMARK  status: ('A' for Active; 'I' for Inactive)
REMARK    1  A    between atoms: C1_1  and  O1_2 
REMARK    2  A    between atoms: O1_2  and  C2_3 
ROOT
ATOM      1  C2  <0> d          -1.201  -0.638   0.010  0.00  0.00     0.126 A 
ATOM      2  C3  <0> d          -2.383   0.093   0.019  0.00  0.00    -0.045 A 
ATOM      3  C4  <0> d          -3.585  -0.597   0.028  0.00  0.00    -0.063 A 
ATOM      4  C5  <0> d          -3.571  -1.978   0.026  0.00  0.00     0.005 A 
ATOM      5  N1  <0> d          -2.432  -2.644   0.017  0.00  0.00    -0.231 NA
ATOM      6  C6  <0> d          -1.266  -2.026   0.003  0.00  0.00     0.243 A 
ATOM      7  F1  <0> d          -0.126  -2.750  -0.012  0.00  0.00    -0.181 F 
ATOM      8  H4  <0> d          -2.365   1.173   0.021  0.00  0.00     0.088 H 
ATOM      9  H5  <0> d          -4.522  -0.061   0.035  0.00  0.00     0.085 H 
ATOM     10  H6  <0> d          -4.505  -2.520   0.032  0.00  0.00     0.114 H 
ENDROOT
BRANCH   1  11
ATOM     11  O1  <0> d           0.002  -0.004   0.002  0.00  0.00    -0.351 OA
BRANCH  11  12
ATOM     12  C1  <0> d          -0.017   1.425   0.010  0.00  0.00     0.011 C 
ATOM     13  H1  <0> d           1.005   1.802   0.002  0.00  0.00     0.067 H 
ATOM     14  H2  <0> d          -0.544   1.786  -0.873  0.00  0.00     0.067 H 
ATOM     15  H3  <0> d          -0.527   1.776   0.907  0.00  0.00     0.067 H 
ENDBRANCH  11  12
ENDBRANCH   1  11
TORSDOF 2
