REMARK  0 active torsions:
REMARK  status: ('A' for Active; 'I' for Inactive)
ROOT
ATOM      1  C1  <0> d           2.379   1.425  -0.013  0.00  0.00    -0.081 A 
ATOM      2  C2  <0> d           2.398   0.037  -0.021  0.00  0.00    -0.081 A 
ATOM      3  C3  <0> d           1.235  -0.675  -0.013  0.00  0.00    -0.053 A 
ATOM      4  C4  <0> d           0.002  -0.004   0.002  0.00  0.00     0.083 A 
ATOM      5  C5  <0> d          -0.017   1.403   0.010  0.00  0.00     0.064 A 
ATOM      6  C6  <0> d           1.183   2.108   0.002  0.00  0.00    -0.055 A 
ATOM      7  N1  <0> d          -1.222   2.077   0.031  0.00  0.00    -0.320 N 
ATOM      8  H1  <0> d          -1.237   3.177   0.045  0.00  0.00     0.169 HD
ATOM      9  C7  <0> d          -2.370   1.364   0.033  0.00  0.00     0.263 A 
ATOM     10  O1  <0> d          -3.447   1.931   0.046  0.00  0.00    -0.267 OA
ATOM     11  C8  <0> d          -2.302  -0.101   0.024  0.00  0.00     0.068 A 
ATOM     12  N2  <0> d          -1.148  -0.705   0.010  0.00  0.00    -0.253 NA
ATOM     13  H2  <0> d           3.309   1.974  -0.020  0.00  0.00     0.083 H 
ATOM     14  H3  <0> d           3.344  -0.485  -0.032  0.00  0.00     0.083 H 
ATOM     15  H4  <0> d           1.262  -1.755  -0.019  0.00  0.00     0.087 H 
ATOM     16  H5  <0> d           1.176   3.188   0.008  0.00  0.00     0.087 H 
ATOM     17  H6  <0> d          -3.213  -0.682   0.030  0.00  0.00     0.123 H 
ENDROOT
TORSDOF 0
