REMARK  3 active torsions:
REMARK  status: ('A' for Active; 'I' for Inactive)
REMARK    1  A    between atoms: C1_1  and  C2_2 
REMARK    2  A    between atoms: C2_2  and  C3_3 
REMARK       I    between atoms: C3_3  and  N1_5 
REMARK    3  A    between atoms: N1_5  and  C4_6 
ROOT
ATOM      1  C3  <0> d           0.707  -0.490  -1.238  0.00  0.00     0.223 C 
ATOM      2  O1  <0> d           1.150   0.309  -2.036  0.00  0.00    -0.273 OA
ATOM      3  N1  <0> d           0.847  -1.812  -1.460  0.00  0.00    -0.307 N 
ATOM      4  H6  <0> d           0.493  -2.451  -0.821  0.00  0.00     0.171 HD
ENDROOT
BRANCH   3   5
ATOM      5  C4  <0> d           1.499  -2.262  -2.607  0.00  0.00     0.149 A 
ATOM      6  O2  <0> d           2.032  -1.485  -3.565  0.00  0.00    -0.306 OA
ATOM      7  C7  <0> d           2.582  -2.261  -4.517  0.00  0.00     0.021 A 
ATOM      8  C6  <0> d           2.397  -3.549  -4.179  0.00  0.00    -0.057 A 
ATOM      9  H9  <0> d           3.084  -1.908  -5.406  0.00  0.00     0.123 H 
ATOM     10  C5  <0> d           1.700  -3.556  -2.949  0.00  0.00    -0.032 A 
ATOM     11  H8  <0> d           2.720  -4.414  -4.740  0.00  0.00     0.086 H 
ATOM     12  H7  <0> d           1.387  -4.426  -2.390  0.00  0.00     0.090 H 
ENDBRANCH   3   5
BRANCH   1  13
ATOM     13  C2  <0> d           0.002  -0.004   0.002  0.00  0.00     0.006 C 
ATOM     14  H4  <0> d           0.529  -0.365   0.885  0.00  0.00     0.046 H 
ATOM     15  H5  <0> d          -1.020  -0.381   0.010  0.00  0.00     0.046 H 
BRANCH  13  16
ATOM     16  C1  <0> d          -0.019   1.526   0.010  0.00  0.00    -0.068 C 
ATOM     17  H1  <0> d           1.004   1.903   0.003  0.00  0.00     0.028 H 
ATOM     18  H2  <0> d          -0.546   1.887  -0.873  0.00  0.00     0.028 H 
ATOM     19  H3  <0> d          -0.529   1.877   0.907  0.00  0.00     0.028 H 
ENDBRANCH  13  16
ENDBRANCH   1  13
TORSDOF 3
