REMARK  2 active torsions:
REMARK  status: ('A' for Active; 'I' for Inactive)
REMARK    1  A    between atoms: C1_1  and  C2_2 
REMARK    2  A    between atoms: C4_5  and  C5_7 
ROOT
ATOM      1  C2  <0> d           2.656   4.916  -1.173  0.00  0.00    -0.050 A 
ATOM      2  H1  <0> d           3.679   5.041  -1.528  0.00  0.00     0.040 H 
ATOM      3  C3  <0> d           2.317   5.472   0.212  0.00  0.00    -0.054 A 
ATOM      4  C4  <0> d           2.427   3.960   0.000  0.00  0.00    -0.025 A 
ATOM      5  H2  <0> d           3.299   3.456   0.417  0.00  0.00     0.048 H 
ATOM      6  H6  <0> d           1.320   5.888   0.357  0.00  0.00     0.034 H 
ATOM      7  H7  <0> d           3.116   5.962   0.767  0.00  0.00     0.034 H 
ENDROOT
BRANCH   4   8
ATOM      8  C5  <0> d           1.150   3.161   0.008  0.00  0.00    -0.051 A 
ATOM      9  C9  <0> d          -0.084   3.795   0.022  0.00  0.00    -0.060 A 
ATOM     10  C8  <0> d          -1.234   3.029   0.029  0.00  0.00     0.002 A 
ATOM     11  H11 <0> d          -0.144   4.873   0.029  0.00  0.00     0.086 H 
ATOM     12  N1  <0> d          -1.168   1.712   0.017  0.00  0.00    -0.273 NA
ATOM     13  H10 <0> d          -2.199   3.515   0.041  0.00  0.00     0.114 H 
ATOM     14  C7  <0> d          -0.013   1.076   0.008  0.00  0.00     0.002 A 
ATOM     15  C6  <0> d           1.179   1.775   0.000  0.00  0.00    -0.060 A 
ATOM     16  H9  <0> d           0.002  -0.004   0.002  0.00  0.00     0.114 H 
ATOM     17  H8  <0> d           2.122   1.248  -0.011  0.00  0.00     0.086 H 
ENDBRANCH   4   8
BRANCH   1  18
ATOM     18  C1  <0> d           1.570   4.987  -2.248  0.00  0.00    -0.072 C 
ATOM     19  H3  <0> d           0.631   5.306  -1.796  0.00  0.00     0.028 H 
ATOM     20  H4  <0> d           1.865   5.703  -3.015  0.00  0.00     0.028 H 
ATOM     21  H5  <0> d           1.440   4.003  -2.699  0.00  0.00     0.028 H 
ENDBRANCH   1  18
TORSDOF 2
