REMARK  2 active torsions:
REMARK  status: ('A' for Active; 'I' for Inactive)
REMARK    1  A    between atoms: C6_6  and  C7_7 
REMARK    2  A    between atoms: C7_7  and  O1_8 
ROOT
ATOM      1  C1  <0> d          -0.358   2.781   1.817  0.00  0.00    -0.072 A 
ATOM      2  C2  <0> d          -1.002   3.238   2.952  0.00  0.00    -0.044 A 
ATOM      3  C3  <0> d          -2.006   2.484   3.532  0.00  0.00     0.137 A 
ATOM      4  C4  <0> d          -2.370   1.259   2.963  0.00  0.00     0.083 A 
ATOM      5  C5  <0> d          -1.717   0.808   1.815  0.00  0.00    -0.052 A 
ATOM      6  C6  <0> d          -0.718   1.572   1.248  0.00  0.00    -0.033 A 
ATOM      7  C8  <0> d          -3.408   0.471   3.557  0.00  0.00     0.102 C 
ATOM      8  N1  <0> d          -4.232  -0.154   4.028  0.00  0.00    -0.191 NA
ATOM      9  F1  <0> d          -2.632   2.929   4.643  0.00  0.00    -0.204 F 
ATOM     10  H1  <0> d           0.428   3.372   1.371  0.00  0.00     0.084 H 
ATOM     11  H2  <0> d          -0.719   4.185   3.388  0.00  0.00     0.088 H 
ATOM     12  H3  <0> d          -1.993  -0.137   1.371  0.00  0.00     0.086 H 
ENDROOT
BRANCH   6  13
ATOM     13  C7  <0> d          -0.013   1.086   0.008  0.00  0.00     0.040 C 
ATOM     14  H4  <0> d           0.002  -0.004   0.002  0.00  0.00     0.081 H 
ATOM     15  H5  <0> d           1.010   1.463   0.000  0.00  0.00     0.081 H 
BRANCH  13  16
ATOM     16  O1  <0> d          -0.704   1.559  -1.150  0.00  0.00    -0.396 OA
ATOM     17  H6  <0> d          -0.304   1.284  -1.986  0.00  0.00     0.209 HD
ENDBRANCH  13  16
ENDBRANCH   6  13
TORSDOF 2
