REMARK  3 active torsions:
REMARK  status: ('A' for Active; 'I' for Inactive)
REMARK    1  A    between atoms: C2_2  and  C5_7 
REMARK    2  A    between atoms: C5_7  and  C6_8 
REMARK    3  A    between atoms: C6_8  and  O1_9 
ROOT
ATOM      1  C1  <0> d          -0.016   1.319   0.009  0.00  0.00     0.011 A 
ATOM      2  C2  <0> d           1.186   2.010   0.002  0.00  0.00    -0.021 A 
ATOM      3  C3  <0> d           2.365   1.281  -0.014  0.00  0.00     0.011 A 
ATOM      4  N1  <0> d           2.304  -0.041  -0.020  0.00  0.00    -0.254 NA
ATOM      5  C4  <0> d           1.143  -0.664  -0.012  0.00  0.00     0.085 A 
ATOM      6  N2  <0> d           0.002  -0.004   0.002  0.00  0.00    -0.254 NA
ATOM      7  H1  <0> d          -0.954   1.854   0.026  0.00  0.00     0.115 H 
ATOM      8  H2  <0> d           3.320   1.785  -0.020  0.00  0.00     0.115 H 
ATOM      9  H3  <0> d           1.126  -1.744  -0.018  0.00  0.00     0.146 H 
ENDROOT
BRANCH   2  10
ATOM     10  C5  <0> d           1.210   3.517   0.009  0.00  0.00    -0.019 C 
ATOM     11  H4  <0> d           2.101   3.868  -0.511  0.00  0.00     0.043 H 
ATOM     12  H5  <0> d           0.321   3.897  -0.495  0.00  0.00     0.043 H 
BRANCH  10  13
ATOM     13  C6  <0> d           1.232   4.019   1.454  0.00  0.00     0.021 C 
ATOM     14  H6  <0> d           0.341   3.667   1.974  0.00  0.00     0.074 H 
ATOM     15  H7  <0> d           2.120   3.639   1.957  0.00  0.00     0.074 H 
BRANCH  13  16
ATOM     16  O1  <0> d           1.254   5.448   1.461  0.00  0.00    -0.401 OA
ATOM     17  H8  <0> d           1.269   5.837   2.346  0.00  0.00     0.209 HD
ENDBRANCH  13  16
ENDBRANCH  10  13
ENDBRANCH   2  10
TORSDOF 3
