REMARK  6 active torsions:
REMARK  status: ('A' for Active; 'I' for Inactive)
REMARK    1  A    between atoms: C1_1  and  C2_2 
REMARK    2  A    between atoms: C2_2  and  C3_4 
REMARK    3  A    between atoms: C2_2  and  C6_7 
REMARK    4  A    between atoms: C3_4  and  C4_5 
REMARK    5  A    between atoms: C3_4  and  C5_6 
REMARK    6  A    between atoms: C6_7  and  C7_9 
ROOT
ATOM      1  C2  <0> d           0.002  -0.004   0.002  0.00  0.00     0.003 C 
ATOM      2  H1  <0> d          -1.020  -0.381   0.010  0.00  0.00     0.051 H 
ENDROOT
BRANCH   1   3
ATOM      3  C1  <0> d          -0.019   1.526   0.010  0.00  0.00    -0.066 C 
ATOM      4  H2  <0> d           1.004   1.903   0.003  0.00  0.00     0.028 H 
ATOM      5  H3  <0> d          -0.546   1.887  -0.873  0.00  0.00     0.028 H 
ATOM      6  H4  <0> d          -0.529   1.877   0.907  0.00  0.00     0.028 H 
ENDBRANCH   1   3
BRANCH   1   7
ATOM      7  C3  <0> d           0.718  -0.497  -1.257  0.00  0.00    -0.051 C 
ATOM      8  H5  <0> d           1.741  -0.120  -1.264  0.00  0.00     0.040 H 
BRANCH   7   9
ATOM      9  C4  <0> d           0.739  -2.027  -1.265  0.00  0.00    -0.073 C 
ATOM     10  H6  <0> d          -0.284  -2.405  -1.258  0.00  0.00     0.028 H 
ATOM     11  H7  <0> d           1.249  -2.379  -2.162  0.00  0.00     0.028 H 
ATOM     12  H8  <0> d           1.266  -2.388  -0.382  0.00  0.00     0.028 H 
ENDBRANCH   7   9
BRANCH   7  13
ATOM     13  C5  <0> d          -0.022   0.009  -2.496  0.00  0.00    -0.073 C 
ATOM     14  H9  <0> d          -0.037   1.099  -2.490  0.00  0.00     0.028 H 
ATOM     15  H10 <0> d           0.488  -0.342  -3.393  0.00  0.00     0.028 H 
ATOM     16  H11 <0> d          -1.044  -0.368  -2.489  0.00  0.00     0.028 H 
ENDBRANCH   7  13
ENDBRANCH   1   7
BRANCH   1  17
ATOM     17  C6  <0> d           0.731  -0.503   1.223  0.00  0.00     0.127 C 
ATOM     18  O1  <0> d           1.924  -0.688   1.181  0.00  0.00    -0.298 OA
BRANCH  17  19
ATOM     19  C7  <0> d          -0.029  -0.772   2.497  0.00  0.00    -0.021 C 
ATOM     20  H12 <0> d          -1.085  -0.549   2.344  0.00  0.00     0.037 H 
ATOM     21  H13 <0> d           0.086  -1.820   2.773  0.00  0.00     0.037 H 
ATOM     22  H14 <0> d           0.364  -0.141   3.294  0.00  0.00     0.037 H 
ENDBRANCH  17  19
ENDBRANCH   1  17
TORSDOF 6
