REMARK  2 active torsions:
REMARK  status: ('A' for Active; 'I' for Inactive)
REMARK    1  A    between atoms: C1_1  and  C2_2 
REMARK       I    between atoms: C2_2  and  N1_4 
REMARK       I    between atoms: N2_6  and  C6_9 
REMARK    2  A    between atoms: C6_9  and  C7_11 
ROOT
ATOM      1  C2  <0> d          -1.690   4.188   0.039  0.00  0.00     0.221 C 
ATOM      2  O1  <0> d          -1.292   5.334   0.041  0.00  0.00    -0.273 OA
ATOM      3  N1  <0> d          -0.808   3.169   0.026  0.00  0.00    -0.310 N 
ATOM      4  C3  <0> d           0.660   3.276   0.013  0.00  0.00     0.069 A 
ATOM      5  N2  <0> d           1.128   1.880   0.001  0.00  0.00    -0.310 N 
ATOM      6  C4  <0> d          -0.013   1.076   0.008  0.00  0.00    -0.001 A 
ATOM      7  C5  <0> d          -1.109   1.806   0.017  0.00  0.00    -0.001 A 
ATOM      8  C6  <0> d           2.409   1.461  -0.012  0.00  0.00     0.221 C 
ATOM      9  O2  <0> d           3.312   2.271  -0.016  0.00  0.00    -0.273 OA
ATOM     10  H4  <0> d           1.012   3.788   0.908  0.00  0.00     0.098 H 
ATOM     11  H5  <0> d           0.997   3.798  -0.882  0.00  0.00     0.098 H 
ATOM     12  H6  <0> d           0.002  -0.004   0.002  0.00  0.00     0.114 H 
ATOM     13  H7  <0> d          -2.111   1.402   0.019  0.00  0.00     0.114 H 
ENDROOT
BRANCH   1  14
ATOM     14  C1  <0> d          -3.170   3.905   0.051  0.00  0.00    -0.002 C 
ATOM     15  H1  <0> d          -3.517   3.831   1.082  0.00  0.00     0.040 H 
ATOM     16  H2  <0> d          -3.699   4.713  -0.454  0.00  0.00     0.040 H 
ATOM     17  H3  <0> d          -3.364   2.965  -0.465  0.00  0.00     0.040 H 
ENDBRANCH   1  14
BRANCH   8  18
ATOM     18  C7  <0> d           2.720  -0.013  -0.023  0.00  0.00    -0.002 C 
ATOM     19  H8  <0> d           2.785  -0.363  -1.053  0.00  0.00     0.040 H 
ATOM     20  H9  <0> d           3.670  -0.188   0.482  0.00  0.00     0.040 H 
ATOM     21  H10 <0> d           1.928  -0.555   0.495  0.00  0.00     0.040 H 
ENDBRANCH   8  18
TORSDOF 2
