REMARK  6 active torsions:
REMARK  status: ('A' for Active; 'I' for Inactive)
REMARK    1  A    between atoms: C1_1  and  C2_2 
REMARK    2  A    between atoms: C2_2  and  C3_3 
REMARK    3  A    between atoms: C2_2  and  C4_4 
REMARK    4  A    between atoms: C4_4  and  C5_6 
REMARK    5  A    between atoms: C4_4  and  O3_9 
REMARK    6  A    between atoms: O3_9  and  C6_10 
ROOT
ATOM      1  C2  <0> d          -0.729   1.579   1.267  0.00  0.00    -0.026 C 
ATOM      2  H5  <0> d          -0.197   1.215   2.158  0.00  0.00     0.043 H 
ENDROOT
BRANCH   1   3
ATOM      3  C1  <0> d          -0.013   1.086   0.008  0.00  0.00    -0.070 C 
ATOM      4  H2  <0> d           1.019   1.466   0.000  0.00  0.00     0.028 H 
ATOM      5  H3  <0> d          -0.545   1.450  -0.883  0.00  0.00     0.028 H 
ATOM      6  H4  <0> d           0.002  -0.014   0.002  0.00  0.00     0.028 H 
ENDBRANCH   1   3
BRANCH   1   7
ATOM      7  C3  <0> d          -2.164   1.050   1.278  0.00  0.00    -0.070 C 
ATOM      8  H6  <0> d          -2.679   1.405   2.183  0.00  0.00     0.028 H 
ATOM      9  H7  <0> d          -2.149  -0.050   1.272  0.00  0.00     0.028 H 
ATOM     10  H8  <0> d          -2.696   1.414   0.387  0.00  0.00     0.028 H 
ENDBRANCH   1   7
BRANCH   1  11
ATOM     11  C4  <0> d          -0.750   3.109   1.275  0.00  0.00     0.124 C 
ATOM     12  H1  <0> d          -1.234   3.514   0.374  0.00  0.00     0.101 H 
BRANCH  11  13
ATOM     13  C5  <0> d          -1.455   3.595   2.515  0.00  0.00     0.203 C 
ATOM     14  O1  <0> d          -0.845   4.217   3.353  0.00  0.00    -0.646 OA
ATOM     15  O2  <0> d          -2.761   3.337   2.689  0.00  0.00    -0.646 OA
ENDBRANCH  11  13
BRANCH  11  16
ATOM     16  O3  <0> d           0.591   3.604   1.265  0.00  0.00    -0.380 OA
BRANCH  16  17
ATOM     17  C6  <0> d           0.739   4.869   0.618  0.00  0.00     0.005 C 
ATOM     18  H9  <0> d           1.794   5.178   0.653  0.00  0.00     0.066 H 
ATOM     19  H10 <0> d           0.120   5.619   1.133  0.00  0.00     0.066 H 
ATOM     20  H11 <0> d           0.416   4.784  -0.430  0.00  0.00     0.066 H 
ENDBRANCH  16  17
ENDBRANCH  11  16
ENDBRANCH   1  11
TORSDOF 6
