REMARK  1 active torsions:
REMARK  status: ('A' for Active; 'I' for Inactive)
REMARK    1  A    between atoms: C3_3  and  C6_8 
ROOT
ATOM      1  C1  <0> d           0.002  -0.004   0.002  0.00  0.00    -0.045 C 
ATOM      2  C2  <0> d           1.391  -0.498   0.420  0.00  0.00    -0.028 C 
ATOM      3  C3  <0> d           2.440   0.303  -0.365  0.00  0.00     0.127 C 
ATOM      4  H1  <0> d           2.266   0.186  -1.435  0.00  0.00     0.101 H 
ATOM      5  O1  <0> d           2.315   1.681  -0.003  0.00  0.00    -0.347 OA
ATOM      6  C4  <0> d           1.074   2.217   0.004  0.00  0.00     0.010 C 
ATOM      7  C5  <0> d          -0.018   1.500   0.010  0.00  0.00    -0.082 C 
ATOM      8  H2  <0> d          -0.744  -0.382   0.702  0.00  0.00     0.039 H 
ATOM      9  H3  <0> d          -0.225  -0.365  -1.001  0.00  0.00     0.039 H 
ATOM     10  H4  <0> d           1.532  -0.339   1.489  0.00  0.00     0.038 H 
ATOM     11  H5  <0> d           1.490  -1.559   0.190  0.00  0.00     0.038 H 
ATOM     12  H6  <0> d           0.981   3.293   0.003  0.00  0.00     0.122 H 
ATOM     13  H7  <0> d          -0.972   2.007   0.018  0.00  0.00     0.079 H 
ENDROOT
BRANCH   3  14
ATOM     14  C6  <0> d           3.821  -0.191  -0.018  0.00  0.00     0.203 C 
ATOM     15  O2  <0> d           4.598   0.539   0.552  0.00  0.00    -0.646 OA
ATOM     16  O3  <0> d           4.188  -1.441  -0.340  0.00  0.00    -0.646 OA
ENDBRANCH   3  14
TORSDOF 1
