REMARK  2 active torsions:
REMARK  status: ('A' for Active; 'I' for Inactive)
REMARK    1  A    between atoms: C1_1  and  C2_2 
REMARK    2  A    between atoms: C4_4  and  C5_7 
ROOT
ATOM      1  C2  <0> d           1.087   1.962   0.002  0.00  0.00     0.061 A 
ATOM      2  C3  <0> d          -0.013   1.076   0.008  0.00  0.00    -0.016 A 
ATOM      3  C4  <0> d          -1.101   1.905   0.017  0.00  0.00     0.179 A 
ATOM      4  O1  <0> d          -0.614   3.161   0.025  0.00  0.00    -0.206 OA
ATOM      5  N1  <0> d           0.595   3.166   0.013  0.00  0.00    -0.133 NA
ATOM      6  H4  <0> d           0.002  -0.004   0.002  0.00  0.00     0.091 H 
ENDROOT
BRANCH   1   7
ATOM      7  C1  <0> d           2.547   1.586  -0.013  0.00  0.00    -0.033 C 
ATOM      8  H1  <0> d           2.889   1.501  -1.045  0.00  0.00     0.035 H 
ATOM      9  H2  <0> d           3.125   2.355   0.499  0.00  0.00     0.035 H 
ATOM     10  H3  <0> d           2.681   0.631   0.494  0.00  0.00     0.035 H 
ENDBRANCH   1   7
BRANCH   3  11
ATOM     11  C5  <0> d          -2.520   1.505   0.020  0.00  0.00     0.236 C 
ATOM     12  O2  <0> d          -2.819   0.328   0.015  0.00  0.00    -0.642 OA
ATOM     13  O3  <0> d          -3.485   2.446   0.029  0.00  0.00    -0.642 OA
ENDBRANCH   3  11
TORSDOF 2
