REMARK  0 active torsions:
REMARK  status: ('A' for Active; 'I' for Inactive)
ROOT
ATOM      1  C1  <0> d           1.081   1.882   0.002  0.00  0.00    -0.066 A 
ATOM      2  C2  <0> d           0.636   3.214   0.012  0.00  0.00    -0.054 A 
ATOM      3  C3  <0> d          -0.725   3.177   0.024  0.00  0.00     0.051 A 
ATOM      4  N1  <0> d          -1.116   1.844   0.017  0.00  0.00    -0.354 N 
ATOM      5  C4  <0> d          -0.013   1.076   0.008  0.00  0.00    -0.020 A 
ATOM      6  C5  <0> d          -2.536   1.480   0.025  0.00  0.00     0.016 C 
ATOM      7  C6  <0> d          -3.317   2.567   0.764  0.00  0.00     0.030 C 
ATOM      8  N2  <0> d          -2.942   3.914   0.363  0.00  0.00    -0.298 NA
ATOM      9  C7  <0> d          -1.728   4.247   0.034  0.00  0.00     0.022 C 
ATOM     10  H1  <0> d           2.110   1.556  -0.009  0.00  0.00     0.085 H 
ATOM     11  H2  <0> d           1.256   4.099   0.011  0.00  0.00     0.087 H 
ATOM     12  H3  <0> d           0.002  -0.004   0.002  0.00  0.00     0.111 H 
ATOM     13  H4  <0> d          -2.900   1.402  -1.000  0.00  0.00     0.067 H 
ATOM     14  H5  <0> d          -2.666   0.524   0.532  0.00  0.00     0.067 H 
ATOM     15  H6  <0> d          -4.381   2.427   0.571  0.00  0.00     0.069 H 
ATOM     16  H7  <0> d          -3.140   2.459   1.834  0.00  0.00     0.069 H 
ATOM     17  H8  <0> d          -1.474   5.263  -0.231  0.00  0.00     0.117 H 
ENDROOT
TORSDOF 0
