REMARK  3 active torsions:
REMARK  status: ('A' for Active; 'I' for Inactive)
REMARK    1  A    between atoms: C1_1  and  C2_2 
REMARK    2  A    between atoms: C2_2  and  C3_3 
REMARK    3  A    between atoms: C3_3  and  C4_4 
ROOT
ATOM      1  C4  <0> d           1.572   1.238  -2.305  0.00  0.00     0.131 C 
ATOM      2  O1  <0> d           1.921   2.247  -1.333  0.00  0.00    -0.361 OA
ATOM      3  C5  <0> d           1.398   2.040  -0.000  0.00  0.00     0.023 C 
ATOM      4  C6  <0> d          -0.019   1.539   0.011  0.00  0.00    -0.043 C 
ATOM      5  C7  <0> d           0.002  -0.004   0.002  0.00  0.00    -0.043 C 
ATOM      6  C8  <0> d           0.331  -0.526  -1.329  0.00  0.00     0.023 C 
ATOM      7  O2  <0> d           1.618  -0.059  -1.783  0.00  0.00    -0.361 OA
ATOM      8  H8  <0> d           0.563   1.435  -2.667  0.00  0.00     0.129 H 
ATOM      9  H9  <0> d           1.439   2.985   0.542  0.00  0.00     0.074 H 
ATOM     10  H10 <0> d           2.029   1.316   0.515  0.00  0.00     0.074 H 
ATOM     11  H11 <0> d          -0.542   1.902  -0.874  0.00  0.00     0.036 H 
ATOM     12  H12 <0> d          -0.525   1.893   0.909  0.00  0.00     0.036 H 
ATOM     13  H13 <0> d           0.747  -0.355   0.717  0.00  0.00     0.036 H 
ATOM     14  H14 <0> d          -0.979  -0.376   0.299  0.00  0.00     0.036 H 
ATOM     15  H15 <0> d           0.341  -1.615  -1.291  0.00  0.00     0.074 H 
ATOM     16  H16 <0> d          -0.433  -0.202  -2.036  0.00  0.00     0.074 H 
ENDROOT
BRANCH   1  17
ATOM     17  C3  <0> d           2.544   1.330  -3.483  0.00  0.00    -0.019 C 
ATOM     18  H6  <0> d           3.564   1.193  -3.124  0.00  0.00     0.040 H 
ATOM     19  H7  <0> d           2.308   0.553  -4.210  0.00  0.00     0.040 H 
BRANCH  17  20
ATOM     20  C2  <0> d           2.416   2.704  -4.144  0.00  0.00    -0.064 C 
ATOM     21  H4  <0> d           1.395   2.840  -4.503  0.00  0.00     0.032 H 
ATOM     22  H5  <0> d           2.652   3.480  -3.416  0.00  0.00     0.032 H 
BRANCH  20  23
ATOM     23  C1  <0> d           3.388   2.796  -5.322  0.00  0.00    -0.076 C 
ATOM     24  H1  <0> d           3.151   2.019  -6.049  0.00  0.00     0.027 H 
ATOM     25  H2  <0> d           3.296   3.774  -5.793  0.00  0.00     0.027 H 
ATOM     26  H3  <0> d           4.408   2.659  -4.963  0.00  0.00     0.027 H 
ENDBRANCH  20  23
ENDBRANCH  17  20
ENDBRANCH   1  17
TORSDOF 3
