REMARK  4 active torsions:
REMARK  status: ('A' for Active; 'I' for Inactive)
REMARK    1  A    between atoms: C1_1  and  C2_2 
REMARK    2  A    between atoms: C3_3  and  C4_4 
REMARK    3  A    between atoms: C4_4  and  N1_5 
REMARK    4  A    between atoms: N1_5  and  C5_6 
ROOT
ATOM      1  N1  <0> d           3.620  -0.649  -0.037  0.00  0.00    -0.386 N 
ATOM      2  H8  <0> d           3.634  -1.619  -0.042  0.00  0.00     0.160 HD
ENDROOT
BRANCH   1   3
ATOM      3  C4  <0> d           4.877   0.102  -0.045  0.00  0.00     0.007 C 
ATOM      4  H6  <0> d           4.917   0.735  -0.931  0.00  0.00     0.070 H 
ATOM      5  H7  <0> d           4.934   0.725   0.848  0.00  0.00     0.070 H 
BRANCH   3   6
ATOM      6  C3  <0> d           6.037  -0.860  -0.061  0.00  0.00    -0.090 C 
ATOM      7  C2  <0> d           6.947  -0.772  -0.999  0.00  0.00    -0.109 C 
ATOM      8  H4  <0> d           6.867  -0.010  -1.760  0.00  0.00     0.075 H 
ATOM      9  H5  <0> d           6.118  -1.622   0.700  0.00  0.00     0.078 H 
BRANCH   7  10
ATOM     10  C1  <0> d           8.107  -1.734  -1.016  0.00  0.00    -0.060 C 
ATOM     11  H1  <0> d           7.732  -2.753  -1.108  0.00  0.00     0.032 H 
ATOM     12  H2  <0> d           8.755  -1.507  -1.863  0.00  0.00     0.032 H 
ATOM     13  H3  <0> d           8.673  -1.637  -0.090  0.00  0.00     0.032 H 
ENDBRANCH   7  10
ENDBRANCH   3   6
ENDBRANCH   1   3
BRANCH   1  14
ATOM     14  C5  <0> d           2.400   0.031  -0.021  0.00  0.00     0.028 A 
ATOM     15  C10 <0> d           2.377   1.420  -0.013  0.00  0.00    -0.058 A 
ATOM     16  C9  <0> d           1.169   2.089   0.002  0.00  0.00    -0.081 A 
ATOM     17  H13 <0> d           3.303   1.976  -0.019  0.00  0.00     0.086 H 
ATOM     18  C8  <0> d          -0.017   1.379   0.010  0.00  0.00    -0.083 A 
ATOM     19  H12 <0> d           1.151   3.169   0.008  0.00  0.00     0.083 H 
ATOM     20  C7  <0> d           0.002  -0.004   0.002  0.00  0.00    -0.081 A 
ATOM     21  H11 <0> d          -0.960   1.905   0.017  0.00  0.00     0.083 H 
ATOM     22  C6  <0> d           1.206  -0.680  -0.013  0.00  0.00    -0.058 A 
ATOM     23  H10 <0> d          -0.926  -0.556   0.008  0.00  0.00     0.083 H 
ATOM     24  H9  <0> d           1.220  -1.760  -0.019  0.00  0.00     0.086 H 
ENDBRANCH   1  14
TORSDOF 4
