REMARK  3 active torsions:
REMARK  status: ('A' for Active; 'I' for Inactive)
REMARK    1  A    between atoms: C1_1  and  N1_2 
REMARK    2  A    between atoms: C5_8  and  S1_9 
REMARK    3  A    between atoms: S1_9  and  C6_10 
ROOT
ATOM      1  N1  <0> d           1.156   1.782   0.001  0.00  0.00    -0.340 N 
ATOM      2  C2  <0> d          -0.013   1.076   0.008  0.00  0.00    -0.013 A 
ATOM      3  C3  <0> d          -1.187   1.742   0.017  0.00  0.00    -0.000 A 
ATOM      4  C4  <0> d          -1.171   3.161   0.031  0.00  0.00     0.270 A 
ATOM      5  O1  <0> d          -2.220   3.787   0.045  0.00  0.00    -0.266 OA
ATOM      6  N2  <0> d           0.002   3.809   0.023  0.00  0.00    -0.185 NA
ATOM      7  C5  <0> d           1.139   3.142   0.008  0.00  0.00     0.171 A 
ATOM      8  H4  <0> d           0.002  -0.004   0.002  0.00  0.00     0.111 H 
ATOM      9  H5  <0> d          -2.123   1.204   0.018  0.00  0.00     0.094 H 
ENDROOT
BRANCH   7  10
ATOM     10  S1  <0> d           2.662   4.028  -0.002  0.00  0.00    -0.096 SA
BRANCH  10  11
ATOM     11  C6  <0> d           2.038   5.726   0.013  0.00  0.00    -0.027 C 
ATOM     12  H6  <0> d           1.422   5.895  -0.870  0.00  0.00     0.042 H 
ATOM     13  H7  <0> d           1.439   5.886   0.910  0.00  0.00     0.042 H 
ATOM     14  H8  <0> d           2.877   6.422   0.009  0.00  0.00     0.042 H 
ENDBRANCH  10  11
ENDBRANCH   7  10
BRANCH   1  15
ATOM     15  C1  <0> d           2.437   1.070  -0.015  0.00  0.00    -0.013 C 
ATOM     16  H1  <0> d           2.744   0.899  -1.046  0.00  0.00     0.057 H 
ATOM     17  H2  <0> d           3.191   1.669   0.495  0.00  0.00     0.057 H 
ATOM     18  H3  <0> d           2.326   0.113   0.495  0.00  0.00     0.057 H 
ENDBRANCH   1  15
TORSDOF 3
