REMARK  2 active torsions:
REMARK  status: ('A' for Active; 'I' for Inactive)
REMARK    1  A    between atoms: C1_1  and  C2_2 
REMARK    2  A    between atoms: C4_5  and  C6_10 
ROOT
ATOM      1  C2  <0> d          -2.015   2.442   3.448  0.00  0.00     0.024 A 
ATOM      2  C3  <0> d          -2.679   2.198   2.284  0.00  0.00     0.015 A 
ATOM      3  N1  <0> d          -2.008   1.772   1.211  0.00  0.00    -0.247 NA
ATOM      4  C4  <0> d          -0.718   1.572   1.248  0.00  0.00     0.102 A 
ATOM      5  N2  <0> d          -0.003   1.795   2.368  0.00  0.00    -0.311 N 
ATOM      6  H1  <0> d           1.084   1.622   2.370  0.00  0.00     0.170 HD
ATOM      7  C5  <0> d          -0.621   2.231   3.486  0.00  0.00     0.254 A 
ATOM      8  O1  <0> d           0.013   2.438   4.508  0.00  0.00    -0.268 OA
ATOM      9  H5  <0> d          -3.747   2.352   2.229  0.00  0.00     0.115 H 
ENDROOT
BRANCH   1  10
ATOM     10  C1  <0> d          -2.753   2.928   4.668  0.00  0.00    -0.045 C 
ATOM     11  H2  <0> d          -3.823   3.028   4.434  0.00  0.00     0.033 H 
ATOM     12  H3  <0> d          -2.352   3.905   4.975  0.00  0.00     0.033 H 
ATOM     13  H4  <0> d          -2.624   2.205   5.487  0.00  0.00     0.033 H 
ENDBRANCH   1  10
BRANCH   4  14
ATOM     14  C6  <0> d          -0.013   1.086   0.008  0.00  0.00    -0.021 C 
ATOM     15  H6  <0> d           1.061   0.972   0.218  0.00  0.00     0.037 H 
ATOM     16  H7  <0> d          -0.153   1.815  -0.803  0.00  0.00     0.037 H 
ATOM     17  H8  <0> d          -0.432   0.115  -0.295  0.00  0.00     0.037 H 
ENDBRANCH   4  14
TORSDOF 2
