REMARK  5 active torsions:
REMARK  status: ('A' for Active; 'I' for Inactive)
REMARK    1  A    between atoms: C1_1  and  C2_2 
REMARK       I    between atoms: C2_2  and  N1_4 
REMARK    2  A    between atoms: N1_4  and  C3_5 
REMARK    3  A    between atoms: N1_4  and  C4_6 
REMARK    4  A    between atoms: C4_6  and  C5_7 
REMARK    5  A    between atoms: C5_7  and  O2_8 
ROOT
ATOM      1  C2  <0> d           1.271   3.833   2.448  0.00  0.00     0.215 C 
ATOM      2  O1  <0> d           2.470   3.647   2.437  0.00  0.00    -0.274 OA
ATOM      3  N1  <0> d           0.536   3.555   1.353  0.00  0.00    -0.355 N 
ENDROOT
BRANCH   3   4
ATOM      4  C3  <0> d          -0.923   3.682   1.399  0.00  0.00    -0.016 C 
ATOM      5  H4  <0> d          -1.355   2.767   1.802  0.00  0.00     0.056 H 
ATOM      6  H5  <0> d          -1.194   4.524   2.036  0.00  0.00     0.056 H 
ATOM      7  H6  <0> d          -1.304   3.852   0.392  0.00  0.00     0.056 H 
ENDBRANCH   3   4
BRANCH   3   8
ATOM      8  C4  <0> d           1.196   3.126   0.117  0.00  0.00     0.017 C 
ATOM      9  H7  <0> d           2.189   3.571   0.062  0.00  0.00     0.067 H 
ATOM     10  H8  <0> d           0.605   3.448  -0.740  0.00  0.00     0.067 H 
BRANCH   8  11
ATOM     11  C5  <0> d           1.318   1.601   0.108  0.00  0.00     0.032 C 
ATOM     12  H9  <0> d           1.832   1.272   1.012  0.00  0.00     0.076 H 
ATOM     13  H10 <0> d           1.887   1.288  -0.768  0.00  0.00     0.076 H 
BRANCH  11  14
ATOM     14  O2  <0> d           0.014   1.018   0.062  0.00  0.00    -0.399 OA
ATOM     15  H11 <0> d           0.016   0.051   0.054  0.00  0.00     0.209 HD
ENDBRANCH  11  14
ENDBRANCH   8  11
ENDBRANCH   3   8
BRANCH   1  16
ATOM     16  C1  <0> d           0.604   4.375   3.686  0.00  0.00    -0.003 C 
ATOM     17  H1  <0> d          -0.476   4.388   3.541  0.00  0.00     0.040 H 
ATOM     18  H2  <0> d           0.849   3.741   4.538  0.00  0.00     0.040 H 
ATOM     19  H3  <0> d           0.957   5.389   3.874  0.00  0.00     0.040 H 
ENDBRANCH   1  16
TORSDOF 5
