REMARK  3 active torsions:
REMARK  status: ('A' for Active; 'I' for Inactive)
REMARK    1  A    between atoms: C1_1  and  N1_2 
REMARK    2  A    between atoms: C2_3  and  N4_8 
REMARK    3  A    between atoms: C3_4  and  N3_7 
ROOT
ATOM      1  N1  <0> d           0.002  -0.004   0.002  0.00  0.00    -0.257 N 
ATOM      2  C2  <0> d           0.008  -0.799  -1.102  0.00  0.00     0.145 A 
ATOM      3  C3  <0> d           0.028  -2.094  -0.673  0.00  0.00     0.090 A 
ATOM      4  C4  <0> d           0.034  -2.081   0.726  0.00  0.00     0.051 A 
ATOM      5  N2  <0> d           0.025  -0.835   1.129  0.00  0.00    -0.181 NA
ATOM      6  H4  <0> d           0.049  -2.951   1.366  0.00  0.00     0.121 H 
ENDROOT
BRANCH   1   7
ATOM      7  C1  <0> d          -0.018   1.461   0.010  0.00  0.00     0.004 C 
ATOM      8  H1  <0> d           1.005   1.838   0.002  0.00  0.00     0.059 H 
ATOM      9  H2  <0> d          -0.545   1.822  -0.873  0.00  0.00     0.059 H 
ATOM     10  H3  <0> d          -0.528   1.812   0.907  0.00  0.00     0.059 H 
ENDBRANCH   1   7
BRANCH   2  11
ATOM     11  N4  <0> d          -0.005  -0.369  -2.431  0.00  0.00    -0.382 N 
ATOM     12  H7  <0> d          -0.019   0.580  -2.634  0.00  0.00     0.157 HD
ATOM     13  H8  <0> d           0.001  -1.019  -3.151  0.00  0.00     0.157 HD
ENDBRANCH   2  11
BRANCH   3  14
ATOM     14  N3  <0> d           0.040  -3.244  -1.496  0.00  0.00    -0.395 N 
ATOM     15  H5  <0> d           0.034  -3.150  -2.461  0.00  0.00     0.156 HD
ATOM     16  H6  <0> d           0.054  -4.127  -1.094  0.00  0.00     0.156 HD
ENDBRANCH   3  14
TORSDOF 3
