REMARK  5 active torsions:
REMARK  status: ('A' for Active; 'I' for Inactive)
REMARK    1  A    between atoms: C1_1  and  O1_2 
REMARK    2  A    between atoms: O1_2  and  C2_3 
REMARK    3  A    between atoms: C4_6  and  O4_13 
REMARK    4  A    between atoms: C5_8  and  C6_11 
REMARK    5  A    between atoms: C6_11  and  O3_12 
ROOT
ATOM      1  C2  <0> d           0.002  -0.004   0.002  0.00  0.00     0.133 C 
ATOM      2  H1  <0> d           0.203  -0.375  -1.003  0.00  0.00     0.129 H 
ATOM      3  C3  <0> d           1.152  -0.389   0.959  0.00  0.00     0.007 C 
ATOM      4  C4  <0> d           2.073   0.852   0.957  0.00  0.00     0.067 C 
ATOM      5  H2  <0> d           2.146   1.276   1.959  0.00  0.00     0.087 H 
ATOM      6  C5  <0> d           1.370   1.839  -0.001  0.00  0.00     0.086 C 
ATOM      7  H3  <0> d           1.783   1.751  -1.006  0.00  0.00     0.090 H 
ATOM      8  O2  <0> d          -0.018   1.440   0.010  0.00  0.00    -0.351 OA
ATOM      9  H7  <0> d           0.768  -0.577   1.962  0.00  0.00     0.044 H 
ATOM     10  H8  <0> d           1.685  -1.263   0.585  0.00  0.00     0.044 H 
ENDROOT
BRANCH   1  11
ATOM     11  O1  <0> d          -1.240  -0.521   0.484  0.00  0.00    -0.366 OA
BRANCH  11  12
ATOM     12  C1  <0> d          -2.333  -0.344  -0.420  0.00  0.00     0.007 C 
ATOM     13  H4  <0> d          -2.479   0.719  -0.609  0.00  0.00     0.066 H 
ATOM     14  H5  <0> d          -2.115  -0.854  -1.358  0.00  0.00     0.066 H 
ATOM     15  H6  <0> d          -3.239  -0.763   0.019  0.00  0.00     0.066 H 
ENDBRANCH  11  12
ENDBRANCH   1  11
BRANCH   6  16
ATOM     16  C6  <0> d           1.516   3.274   0.511  0.00  0.00     0.043 C 
ATOM     17  H9  <0> d           1.034   3.362   1.485  0.00  0.00     0.078 H 
ATOM     18  H10 <0> d           2.574   3.520   0.605  0.00  0.00     0.078 H 
BRANCH  16  19
ATOM     19  O3  <0> d           0.897   4.174  -0.410  0.00  0.00    -0.398 OA
ATOM     20  H11 <0> d           0.951   5.103  -0.149  0.00  0.00     0.209 HD
ENDBRANCH  16  19
ENDBRANCH   6  16
BRANCH   4  21
ATOM     21  O4  <0> d           3.370   0.512   0.463  0.00  0.00    -0.393 OA
ATOM     22  H12 <0> d           3.832  -0.150   0.995  0.00  0.00     0.210 HD
ENDBRANCH   4  21
TORSDOF 5
