REMARK  0 active torsions:
REMARK  status: ('A' for Active; 'I' for Inactive)
ROOT
ATOM      1  C1  <0> d          -0.016   1.350   0.009  0.00  0.00     0.296 A 
ATOM      2  O1  <0> d           0.002  -0.004   0.002  0.00  0.00    -0.147 OA
ATOM      3  N1  <0> d          -1.117   2.128   0.030  0.00  0.00    -0.236 N 
ATOM      4  H1  <0> d          -2.040   1.829   0.043  0.00  0.00     0.193 HD
ATOM      5  N2  <0> d          -0.663   3.457   0.030  0.00  0.00    -0.138 NA
ATOM      6  C2  <0> d           0.643   3.413   0.011  0.00  0.00     0.244 A 
ATOM      7  N3  <0> d           1.036   2.138   0.004  0.00  0.00    -0.173 NA
ATOM      8 Cl1  <0> d           1.698   4.792   0.001  0.00  0.00    -0.040 Cl
ENDROOT
TORSDOF 0
