REMARK  5 active torsions:
REMARK  status: ('A' for Active; 'I' for Inactive)
REMARK    1  A    between atoms: C1_1  and  C2_2 
REMARK    2  A    between atoms: C2_2  and  C3_3 
REMARK    3  A    between atoms: C3_3  and  C4_4 
REMARK    4  A    between atoms: C4_4  and  C5_5 
REMARK    5  A    between atoms: C9_9  and  N1_11 
ROOT
ATOM      1  C5  <0> d          -0.049   3.845   0.021  0.00  0.00    -0.056 A 
ATOM      2  C6  <0> d           1.156   3.166   0.007  0.00  0.00    -0.077 A 
ATOM      3  C7  <0> d           1.174   1.783   0.000  0.00  0.00    -0.080 A 
ATOM      4  C8  <0> d          -0.013   1.076   0.008  0.00  0.00    -0.058 A 
ATOM      5  C9  <0> d          -1.224   1.755   0.017  0.00  0.00     0.026 A 
ATOM      6  C10 <0> d          -1.238   3.144   0.029  0.00  0.00    -0.052 A 
ATOM      7  H10 <0> d           2.085   3.717   0.001  0.00  0.00     0.084 H 
ATOM      8  H11 <0> d           2.116   1.256  -0.011  0.00  0.00     0.083 H 
ATOM      9  H12 <0> d           0.002  -0.004   0.002  0.00  0.00     0.086 H 
ATOM     10  H13 <0> d          -2.179   3.675   0.040  0.00  0.00     0.087 H 
ENDROOT
BRANCH   1  11
ATOM     11  C4  <0> d          -0.064   5.352   0.029  0.00  0.00    -0.041 C 
ATOM     12  H8  <0> d          -0.952   5.704   0.552  0.00  0.00     0.040 H 
ATOM     13  H9  <0> d           0.828   5.721   0.536  0.00  0.00     0.040 H 
BRANCH  11  14
ATOM     14  C3  <0> d          -0.082   5.869  -1.411  0.00  0.00    -0.062 C 
ATOM     15  H6  <0> d           0.807   5.516  -1.935  0.00  0.00     0.033 H 
ATOM     16  H7  <0> d          -0.973   5.499  -1.919  0.00  0.00     0.033 H 
BRANCH  14  17
ATOM     17  C2  <0> d          -0.096   7.399  -1.404  0.00  0.00    -0.068 C 
ATOM     18  H4  <0> d          -0.985   7.751  -0.880  0.00  0.00     0.032 H 
ATOM     19  H5  <0> d           0.795   7.768  -0.897  0.00  0.00     0.032 H 
BRANCH  17  20
ATOM     20  C1  <0> d          -0.115   7.915  -2.844  0.00  0.00    -0.077 C 
ATOM     21  H1  <0> d           0.774   7.563  -3.368  0.00  0.00     0.027 H 
ATOM     22  H2  <0> d          -1.006   7.546  -3.352  0.00  0.00     0.027 H 
ATOM     23  H3  <0> d          -0.125   9.005  -2.839  0.00  0.00     0.027 H 
ENDBRANCH  17  20
ENDBRANCH  14  17
ENDBRANCH  11  14
ENDBRANCH   1  11
BRANCH   5  24
ATOM     24  N1  <0> d          -2.426   1.042   0.020  0.00  0.00    -0.399 N 
ATOM     25  H14 <0> d          -2.414   0.072   0.015  0.00  0.00     0.156 HD
ATOM     26  H15 <0> d          -3.271   1.517   0.026  0.00  0.00     0.156 HD
ENDBRANCH   5  24
TORSDOF 5
