REMARK  2 active torsions:
REMARK  status: ('A' for Active; 'I' for Inactive)
REMARK    1  A    between atoms: C2_2  and  C3_3 
REMARK    2  A    between atoms: C8_9  and  O1_11 
ROOT
ATOM      1  C1  <0> d           0.018  -1.178  -0.004  0.00  0.00    -0.154 C 
ATOM      2  C2  <0> d           0.002  -0.004   0.002  0.00  0.00    -0.110 C 
ATOM      3  H3  <0> d           0.032  -2.228  -0.010  0.00  0.00     0.166 H 
ENDROOT
BRANCH   2   4
ATOM      4  C3  <0> d          -0.018   1.468   0.010  0.00  0.00     0.029 C 
ATOM      5  H1  <0> d           1.005   1.845   0.002  0.00  0.00     0.063 H 
ATOM      6  C8  <0> d          -0.734   1.961   1.269  0.00  0.00     0.049 C 
ATOM      7  C7  <0> d          -2.169   1.432   1.280  0.00  0.00    -0.040 C 
ATOM      8  H2  <0> d          -0.749   3.051   1.275  0.00  0.00     0.084 H 
ATOM      9  C6  <0> d          -2.909   1.938   0.040  0.00  0.00    -0.063 C 
ATOM     10  H10 <0> d          -2.680   1.783   2.177  0.00  0.00     0.036 H 
ATOM     11  H11 <0> d          -2.155   0.342   1.274  0.00  0.00     0.036 H 
ATOM     12  C5  <0> d          -2.193   1.445  -1.219  0.00  0.00    -0.064 C 
ATOM     13  H8  <0> d          -2.924   3.028   0.046  0.00  0.00     0.033 H 
ATOM     14  H9  <0> d          -3.932   1.561   0.048  0.00  0.00     0.033 H 
ATOM     15  C4  <0> d          -0.758   1.975  -1.229  0.00  0.00    -0.050 C 
ATOM     16  H6  <0> d          -2.720   1.806  -2.102  0.00  0.00     0.033 H 
ATOM     17  H7  <0> d          -2.179   0.355  -1.224  0.00  0.00     0.033 H 
ATOM     18  H4  <0> d          -0.773   3.064  -1.223  0.00  0.00     0.035 H 
ATOM     19  H5  <0> d          -0.248   1.623  -2.126  0.00  0.00     0.035 H 
BRANCH   6  20
ATOM     20  O1  <0> d          -0.043   1.488   2.427  0.00  0.00    -0.394 OA
ATOM     21  H12 <0> d          -0.442   1.763   3.263  0.00  0.00     0.210 HD
ENDBRANCH   6  20
ENDBRANCH   2   4
TORSDOF 2
