REMARK  2 active torsions:
REMARK  status: ('A' for Active; 'I' for Inactive)
REMARK    1  A    between atoms: C3_3  and  C5_6 
REMARK    2  A    between atoms: C5_6  and  C6_7 
ROOT
ATOM      1  C1  <0> d           0.573   5.666   0.659  0.00  0.00    -0.059 A 
ATOM      2  C2  <0> d           0.839   4.353   1.109  0.00  0.00    -0.052 A 
ATOM      3  C3  <0> d           0.983   3.587   0.012  0.00  0.00     0.062 A 
ATOM      4  O1  <0> d           0.825   4.364  -1.072  0.00  0.00    -0.327 OA
ATOM      5  C4  <0> d           0.570   5.625  -0.685  0.00  0.00     0.019 A 
ATOM      6  H1  <0> d           0.404   6.536   1.277  0.00  0.00     0.086 H 
ATOM      7  H2  <0> d           0.913   4.026   2.135  0.00  0.00     0.087 H 
ATOM      8  H3  <0> d           0.397   6.464  -1.343  0.00  0.00     0.123 H 
ENDROOT
BRANCH   3   9
ATOM      9  C5  <0> d           1.279   2.109   0.001  0.00  0.00     0.060 C 
ATOM     10  H4  <0> d           1.862   1.849   0.884  0.00  0.00     0.059 H 
ATOM     11  H5  <0> d           1.845   1.859  -0.896  0.00  0.00     0.059 H 
BRANCH   9  12
ATOM     12  C6  <0> d          -0.016   1.338   0.009  0.00  0.00     0.178 C 
ATOM     13  O2  <0> d          -1.071   1.928   0.018  0.00  0.00    -0.648 OA
ATOM     14  O3  <0> d           0.002  -0.004   0.002  0.00  0.00    -0.648 OA
ENDBRANCH   9  12
ENDBRANCH   3   9
TORSDOF 2
