REMARK  4 active torsions:
REMARK  status: ('A' for Active; 'I' for Inactive)
REMARK    1  A    between atoms: C1_1  and  C2_2 
REMARK    2  A    between atoms: C2_2  and  O1_3 
REMARK    3  A    between atoms: O1_3  and  C3_4 
REMARK    4  A    between atoms: C3_4  and  C4_6 
ROOT
ATOM      1  C4  <0> d          -0.013   1.086   0.008  0.00  0.00     0.037 C 
ATOM      2  H1  <0> d           0.002  -0.004   0.002  0.00  0.00     0.056 H 
ATOM      3  C5  <0> d           1.428   1.657  -0.003  0.00  0.00    -0.047 C 
ATOM      4  C6  <0> d           1.868   1.569   1.473  0.00  0.00    -0.009 C 
ATOM      5  C7  <0> d           0.605   1.542   2.308  0.00  0.00     0.127 C 
ATOM      6  O3  <0> d           0.543   1.471   3.511  0.00  0.00    -0.298 OA
ATOM      7  C8  <0> d          -0.571   1.622   1.350  0.00  0.00     0.002 C 
ATOM      8  H7  <0> d           2.077   1.048  -0.633  0.00  0.00     0.034 H 
ATOM      9  H8  <0> d           1.427   2.692  -0.344  0.00  0.00     0.034 H 
ATOM     10  H9  <0> d           2.407   0.738   1.612  0.00  0.00     0.044 H 
ATOM     11  H10 <0> d           2.470   2.439   1.735  0.00  0.00     0.044 H 
ATOM     12  H11 <0> d          -0.899   2.558   1.224  0.00  0.00     0.045 H 
ATOM     13  H12 <0> d          -1.390   0.993   1.699  0.00  0.00     0.045 H 
ENDROOT
BRANCH   1  14
ATOM     14  C3  <0> d          -0.808   1.615  -1.158  0.00  0.00     0.263 C 
ATOM     15  O2  <0> d          -0.281   2.340  -1.968  0.00  0.00    -0.265 OA
BRANCH  14  16
ATOM     16  O1  <0> d          -2.100   1.281  -1.296  0.00  0.00    -0.322 OA
BRANCH  16  17
ATOM     17  C2  <0> d          -2.804   1.827  -2.442  0.00  0.00     0.025 C 
ATOM     18  H5  <0> d          -2.786   2.916  -2.394  0.00  0.00     0.074 H 
ATOM     19  H6  <0> d          -2.316   1.496  -3.359  0.00  0.00     0.074 H 
BRANCH  17  20
ATOM     20  C1  <0> d          -4.254   1.340  -2.431  0.00  0.00    -0.056 C 
ATOM     21  H2  <0> d          -4.741   1.671  -1.514  0.00  0.00     0.030 H 
ATOM     22  H3  <0> d          -4.782   1.750  -3.292  0.00  0.00     0.030 H 
ATOM     23  H4  <0> d          -4.271   0.251  -2.479  0.00  0.00     0.030 H 
ENDBRANCH  17  20
ENDBRANCH  16  17
ENDBRANCH  14  16
ENDBRANCH   1  14
TORSDOF 4
