REMARK  7 active torsions:
REMARK  status: ('A' for Active; 'I' for Inactive)
REMARK    1  A    between atoms: C1_1  and  C2_2 
REMARK    2  A    between atoms: C2_2  and  C3_3 
REMARK    3  A    between atoms: C3_3  and  N1_4 
REMARK       I    between atoms: N1_4  and  C4_5 
REMARK       I    between atoms: C4_5  and  N2_7 
REMARK    4  A    between atoms: N2_7  and  C5_8 
REMARK    5  A    between atoms: C5_8  and  C6_10 
REMARK    6  A    between atoms: C5_8  and  C7_11 
REMARK    7  A    between atoms: C7_11  and  C8_12 
ROOT
ATOM      1  N1  <0> d           2.323   0.998  -0.015  0.00  0.00    -0.343 N 
ATOM      2  C4  <0> d           1.147   1.655  -0.000  0.00  0.00     0.316 C 
ATOM      3  O1  <0> d           1.130   2.871   0.007  0.00  0.00    -0.247 OA
ATOM      4  N2  <0> d          -0.011   0.966   0.007  0.00  0.00    -0.339 N 
ATOM      5  H9  <0> d           2.336   0.028  -0.020  0.00  0.00     0.164 HD
ATOM      6  H10 <0> d           0.002  -0.004   0.002  0.00  0.00     0.164 HD
ENDROOT
BRANCH   4   7
ATOM      7  C5  <0> d          -1.290   1.681   0.017  0.00  0.00     0.010 C 
ATOM      8  H1  <0> d          -1.193   2.590   0.611  0.00  0.00     0.071 H 
BRANCH   7   9
ATOM      9  C6  <0> d          -1.680   2.047  -1.416  0.00  0.00    -0.057 C 
ATOM     10  H11 <0> d          -2.631   2.580  -1.409  0.00  0.00     0.030 H 
ATOM     11  H12 <0> d          -0.910   2.685  -1.850  0.00  0.00     0.030 H 
ATOM     12  H13 <0> d          -1.777   1.139  -2.010  0.00  0.00     0.030 H 
ENDBRANCH   7   9
BRANCH   7  13
ATOM     13  C7  <0> d          -2.370   0.786   0.627  0.00  0.00    -0.050 C 
ATOM     14  H14 <0> d          -3.337   1.282   0.554  0.00  0.00     0.035 H 
ATOM     15  H15 <0> d          -2.405  -0.160   0.087  0.00  0.00     0.035 H 
BRANCH  13  16
ATOM     16  C8  <0> d          -2.043   0.521   2.098  0.00  0.00    -0.075 C 
ATOM     17  H16 <0> d          -2.007   1.467   2.638  0.00  0.00     0.027 H 
ATOM     18  H17 <0> d          -2.812  -0.117   2.533  0.00  0.00     0.027 H 
ATOM     19  H18 <0> d          -1.075   0.025   2.171  0.00  0.00     0.027 H 
ENDBRANCH  13  16
ENDBRANCH   7  13
ENDBRANCH   4   7
BRANCH   1  20
ATOM     20  C3  <0> d           3.582   1.747  -0.023  0.00  0.00    -0.004 C 
ATOM     21  H7  <0> d           3.622   2.380  -0.910  0.00  0.00     0.064 H 
ATOM     22  H8  <0> d           3.639   2.370   0.870  0.00  0.00     0.064 H 
BRANCH  20  23
ATOM     23  C2  <0> d           4.758   0.769  -0.039  0.00  0.00    -0.053 C 
ATOM     24  H5  <0> d           4.717   0.137   0.848  0.00  0.00     0.034 H 
ATOM     25  H6  <0> d           4.700   0.146  -0.932  0.00  0.00     0.034 H 
BRANCH  23  26
ATOM     26  C1  <0> d           6.072   1.552  -0.048  0.00  0.00    -0.075 C 
ATOM     27  H2  <0> d           6.910   0.855  -0.059  0.00  0.00     0.027 H 
ATOM     28  H3  <0> d           6.113   2.184  -0.935  0.00  0.00     0.027 H 
ATOM     29  H4  <0> d           6.130   2.175   0.845  0.00  0.00     0.027 H 
ENDBRANCH  23  26
ENDBRANCH  20  23
ENDBRANCH   1  20
TORSDOF 7
