REMARK  3 active torsions:
REMARK  status: ('A' for Active; 'I' for Inactive)
REMARK    1  A    between atoms: C3_3  and  C7_9 
REMARK    2  A    between atoms: C4_4  and  N2_8 
REMARK    3  A    between atoms: C5_5  and  N1_7 
REMARK       I    between atoms: C7_9  and  N3_11 
ROOT
ATOM      1  C1  <0> d          -0.062   0.120  -0.022  0.00  0.00    -0.080 A 
ATOM      2  C2  <0> d           0.058   1.492  -0.004  0.00  0.00    -0.065 A 
ATOM      3  C3  <0> d           1.324   2.084   0.013  0.00  0.00     0.060 A 
ATOM      4  C4  <0> d           2.468   1.274   0.010  0.00  0.00     0.068 A 
ATOM      5  C5  <0> d           2.330  -0.114  -0.008  0.00  0.00     0.053 A 
ATOM      6  C6  <0> d           1.067  -0.683  -0.024  0.00  0.00    -0.055 A 
ATOM      7  H1  <0> d          -1.043  -0.333  -0.035  0.00  0.00     0.083 H 
ATOM      8  H2  <0> d          -0.827   2.111  -0.006  0.00  0.00     0.085 H 
ATOM      9  H3  <0> d           0.962  -1.757  -0.038  0.00  0.00     0.087 H 
ENDROOT
BRANCH   3  10
ATOM     10  C7  <0> d           1.456   3.553   0.033  0.00  0.00     0.251 C 
ATOM     11  O1  <0> d           2.554   4.066  -0.062  0.00  0.00    -0.268 OA
ATOM     12  N3  <0> d           0.359   4.326   0.155  0.00  0.00    -0.366 N 
ATOM     13  H8  <0> d           0.457   5.421   0.170  0.00  0.00     0.159 HD
ATOM     14  H9  <0> d          -0.635   3.861   0.241  0.00  0.00     0.159 HD
ENDBRANCH   3  10
BRANCH   4  15
ATOM     15  N2  <0> d           3.735   1.852   0.026  0.00  0.00    -0.396 N 
ATOM     16  H6  <0> d           4.630   1.213   0.024  0.00  0.00     0.156 HD
ATOM     17  H7  <0> d           3.840   2.947   0.042  0.00  0.00     0.156 HD
ENDBRANCH   4  15
BRANCH   5  18
ATOM     18  N1  <0> d           3.467  -0.931  -0.010  0.00  0.00    -0.397 N 
ATOM     19  H4  <0> d           3.357  -2.026  -0.025  0.00  0.00     0.156 HD
ATOM     20  H5  <0> d           4.470  -0.479   0.003  0.00  0.00     0.156 HD
ENDBRANCH   5  18
TORSDOF 3
