REMARK  2 active torsions:
REMARK  status: ('A' for Active; 'I' for Inactive)
REMARK    1  A    between atoms: C1_1  and  C2_2 
REMARK    2  A    between atoms: C7_7  and  N1_8 
ROOT
ATOM      1  C2  <0> d          -0.151  -0.015   0.022  0.00  0.00    -0.033 A 
ATOM      2  C3  <0> d          -0.251  -0.701  -1.173  0.00  0.00    -0.075 A 
ATOM      3  C4  <0> d          -0.080  -2.072  -1.201  0.00  0.00    -0.082 A 
ATOM      4  C5  <0> d           0.192  -2.762  -0.034  0.00  0.00    -0.081 A 
ATOM      5  C6  <0> d           0.293  -2.082   1.164  0.00  0.00    -0.055 A 
ATOM      6  C7  <0> d           0.128  -0.704   1.194  0.00  0.00     0.064 A 
ATOM      7  H4  <0> d          -0.464  -0.165  -2.086  0.00  0.00     0.084 H 
ATOM      8  H5  <0> d          -0.159  -2.606  -2.137  0.00  0.00     0.083 H 
ATOM      9  H6  <0> d           0.326  -3.833  -0.059  0.00  0.00     0.083 H 
ATOM     10  H7  <0> d           0.505  -2.622   2.075  0.00  0.00     0.087 H 
ENDROOT
BRANCH   6  11
ATOM     11  N1  <0> d           0.236  -0.010   2.408  0.00  0.00    -0.245 N 
ATOM     12  N2  <0> d           0.972   1.162   2.625  0.00  0.00    -0.180 NA
ATOM     13  C10 <0> d           0.827   1.510   3.878  0.00  0.00     0.023 A 
ATOM     14  C9  <0> d           0.003   0.567   4.502  0.00  0.00    -0.048 A 
ATOM     15  H10 <0> d           1.272   2.373   4.351  0.00  0.00     0.117 H 
ATOM     16  C8  <0> d          -0.347  -0.357   3.577  0.00  0.00     0.006 A 
ATOM     17  H9  <0> d          -0.300   0.575   5.539  0.00  0.00     0.087 H 
ATOM     18  H8  <0> d          -0.980  -1.217   3.744  0.00  0.00     0.114 H 
ENDBRANCH   6  11
BRANCH   1  19
ATOM     19  C1  <0> d          -0.338   1.480   0.052  0.00  0.00    -0.049 C 
ATOM     20  H1  <0> d           0.633   1.969  -0.021  0.00  0.00     0.033 H 
ATOM     21  H2  <0> d          -0.963   1.785  -0.788  0.00  0.00     0.033 H 
ATOM     22  H3  <0> d          -0.820   1.767   0.986  0.00  0.00     0.033 H 
ENDBRANCH   1  19
TORSDOF 2
