REMARK  0 active torsions:
REMARK  status: ('A' for Active; 'I' for Inactive)
ROOT
ATOM      1  C1  <0> d          -1.217   1.749   0.017  0.00  0.00    -0.044 A 
ATOM      2  C2  <0> d          -0.013   1.076   0.008  0.00  0.00    -0.059 A 
ATOM      3  C3  <0> d           1.185   1.789   0.000  0.00  0.00     0.065 A 
ATOM      4  C4  <0> d           1.157   3.198   0.008  0.00  0.00     0.068 A 
ATOM      5  C5  <0> d          -0.068   3.861   0.023  0.00  0.00    -0.024 A 
ATOM      6  C6  <0> d          -1.246   3.136   0.031  0.00  0.00     0.117 A 
ATOM      7  F1  <0> d          -2.433   3.782   0.045  0.00  0.00    -0.206 F 
ATOM      8  C7  <0> d           2.380   3.944   0.001  0.00  0.00     0.101 C 
ATOM      9  N1  <0> d           3.350   4.535  -0.005  0.00  0.00    -0.191 NA
ATOM     10  C8  <0> d           2.437   1.094  -0.016  0.00  0.00     0.101 C 
ATOM     11  N2  <0> d           3.430   0.543  -0.029  0.00  0.00    -0.191 NA
ATOM     12  H1  <0> d          -2.143   1.193   0.019  0.00  0.00     0.088 H 
ATOM     13  H2  <0> d           0.002  -0.004   0.002  0.00  0.00     0.086 H 
ATOM     14  H3  <0> d          -0.098   4.941   0.029  0.00  0.00     0.090 H 
ENDROOT
TORSDOF 0
