REMARK  4 active torsions:
REMARK  status: ('A' for Active; 'I' for Inactive)
REMARK    1  A    between atoms: C3_3  and  O2_10 
REMARK    2  A    between atoms: C4_4  and  C7_8 
REMARK    3  A    between atoms: C6_6  and  N1_7 
REMARK    4  A    between atoms: C7_8  and  O1_9 
ROOT
ATOM      1  C1  <0> d          -1.252   3.037   0.030  0.00  0.00    -0.055 A 
ATOM      2  C2  <0> d          -2.458   3.711   0.034  0.00  0.00    -0.048 A 
ATOM      3  C3  <0> d          -3.649   3.001   0.036  0.00  0.00     0.074 A 
ATOM      4  C4  <0> d          -3.631   1.614   0.028  0.00  0.00     0.000 A 
ATOM      5  C5  <0> d          -2.426   0.939   0.019  0.00  0.00    -0.047 A 
ATOM      6  C6  <0> d          -1.232   1.649   0.017  0.00  0.00     0.026 A 
ATOM      7  H1  <0> d          -0.324   3.590   0.033  0.00  0.00     0.087 H 
ATOM      8  H2  <0> d          -2.473   4.791   0.040  0.00  0.00     0.087 H 
ATOM      9  H3  <0> d          -2.412  -0.141   0.013  0.00  0.00     0.088 H 
ENDROOT
BRANCH   4  10
ATOM     10  C7  <0> d          -4.926   0.843   0.030  0.00  0.00     0.043 C 
ATOM     11  H6  <0> d          -5.496   1.094   0.924  0.00  0.00     0.081 H 
ATOM     12  H7  <0> d          -5.505   1.103  -0.855  0.00  0.00     0.081 H 
BRANCH  10  13
ATOM     13  O1  <0> d          -4.646  -0.558   0.022  0.00  0.00    -0.396 OA
ATOM     14  H8  <0> d          -5.436  -1.117   0.023  0.00  0.00     0.209 HD
ENDBRANCH  10  13
ENDBRANCH   4  10
BRANCH   3  15
ATOM     15  O2  <0> d          -4.836   3.665   0.045  0.00  0.00    -0.360 OA
ATOM     16  H9  <0> d          -5.175   3.852   0.931  0.00  0.00     0.217 HD
ENDBRANCH   3  15
BRANCH   6  17
ATOM     17  N1  <0> d          -0.011   0.966   0.007  0.00  0.00    -0.399 N 
ATOM     18  H4  <0> d           0.002  -0.004   0.002  0.00  0.00     0.156 HD
ATOM     19  H5  <0> d           0.822   1.462   0.002  0.00  0.00     0.156 HD
ENDBRANCH   6  17
TORSDOF 4
