REMARK  0 active torsions:
REMARK  status: ('A' for Active; 'I' for Inactive)
ROOT
ATOM      1  C1  <0> d          -0.017   1.378   0.010  0.00  0.00    -0.043 A 
ATOM      2  C2  <0> d           0.002  -0.004   0.002  0.00  0.00    -0.043 A 
ATOM      3  C3  <0> d           1.210  -0.680  -0.013  0.00  0.00     0.116 A 
ATOM      4  C4  <0> d           2.400   0.029  -0.021  0.00  0.00    -0.043 A 
ATOM      5  C5  <0> d           2.381   1.410  -0.015  0.00  0.00    -0.043 A 
ATOM      6  C6  <0> d           1.173   2.086   0.002  0.00  0.00     0.116 A 
ATOM      7  F1  <0> d           1.155   3.437   0.009  0.00  0.00    -0.206 F 
ATOM      8  F2  <0> d           1.229  -2.031  -0.020  0.00  0.00    -0.206 F 
ATOM      9  H1  <0> d          -0.959   1.905   0.017  0.00  0.00     0.088 H 
ATOM     10  H2  <0> d          -0.926  -0.557   0.008  0.00  0.00     0.088 H 
ATOM     11  H3  <0> d           3.342  -0.499  -0.032  0.00  0.00     0.088 H 
ATOM     12  H4  <0> d           3.309   1.963  -0.020  0.00  0.00     0.088 H 
ENDROOT
TORSDOF 0
