REMARK  2 active torsions:
REMARK  status: ('A' for Active; 'I' for Inactive)
REMARK    1  A    between atoms: C1_1  and  O1_2 
REMARK    2  A    between atoms: O1_2  and  C2_3 
ROOT
ATOM      1  C2  <0> d           1.280   2.024   0.001  0.00  0.00     0.133 A 
ATOM      2  H1  <0> d           1.977   1.319   0.454  0.00  0.00     0.104 H 
ATOM      3  C3  <0> d           1.232   3.262   0.875  0.00  0.00    -0.066 A 
ATOM      4  C4  <0> d           1.555   4.432   0.305  0.00  0.00    -0.067 A 
ATOM      5  C5  <0> d           1.924   4.502  -1.052  0.00  0.00     0.006 A 
ATOM      6  N1  <0> d           1.983   3.470  -1.849  0.00  0.00    -0.224 NA
ATOM      7  C6  <0> d           1.692   2.228  -1.443  0.00  0.00     0.275 A 
ATOM      8  O2  <0> d           1.757   1.290  -2.211  0.00  0.00    -0.268 OA
ATOM      9  H5  <0> d           0.948   3.204   1.915  0.00  0.00     0.081 H 
ATOM     10  H6  <0> d           1.531   5.336   0.896  0.00  0.00     0.085 H 
ATOM     11  H7  <0> d           2.175   5.471  -1.459  0.00  0.00     0.114 H 
ENDROOT
BRANCH   1  12
ATOM     12  O1  <0> d          -0.017   1.425   0.010  0.00  0.00    -0.377 OA
BRANCH  12  13
ATOM     13  C1  <0> d           0.002  -0.004   0.002  0.00  0.00     0.005 C 
ATOM     14  H2  <0> d           0.529  -0.365   0.885  0.00  0.00     0.066 H 
ATOM     15  H3  <0> d          -1.020  -0.381   0.010  0.00  0.00     0.066 H 
ATOM     16  H4  <0> d           0.512  -0.356  -0.895  0.00  0.00     0.066 H 
ENDBRANCH  12  13
ENDBRANCH   1  12
TORSDOF 2
