REMARK  5 active torsions:
REMARK  status: ('A' for Active; 'I' for Inactive)
REMARK    1  A    between atoms: C1_1  and  C2_2 
REMARK    2  A    between atoms: C2_2  and  C3_3 
REMARK    3  A    between atoms: C3_3  and  C4_5 
REMARK    4  A    between atoms: C3_3  and  O2_8 
REMARK    5  A    between atoms: C4_5  and  C5_6 
ROOT
ATOM      1  C3  <0> d          -2.479   0.930   0.019  0.00  0.00     0.044 C 
ATOM      2  H1  <0> d          -2.367   0.252  -0.827  0.00  0.00     0.083 H 
ENDROOT
BRANCH   1   3
ATOM      3  C2  <0> d          -3.811   1.673  -0.097  0.00  0.00    -0.044 C 
ATOM      4  H5  <0> d          -3.964   2.284   0.793  0.00  0.00     0.036 H 
ATOM      5  H6  <0> d          -3.795   2.313  -0.979  0.00  0.00     0.036 H 
BRANCH   3   6
ATOM      6  C1  <0> d          -4.951   0.661  -0.222  0.00  0.00    -0.074 C 
ATOM      7  H2  <0> d          -4.798   0.049  -1.111  0.00  0.00     0.027 H 
ATOM      8  H3  <0> d          -4.967   0.021   0.660  0.00  0.00     0.027 H 
ATOM      9  H4  <0> d          -5.900   1.190  -0.304  0.00  0.00     0.027 H 
ENDBRANCH   3   6
ENDBRANCH   1   3
BRANCH   1  10
ATOM     10  C4  <0> d          -1.329   1.940   0.019  0.00  0.00     0.039 C 
ATOM     11  H7  <0> d          -1.391   2.561   0.913  0.00  0.00     0.052 H 
ATOM     12  H8  <0> d          -1.400   2.570  -0.867  0.00  0.00     0.052 H 
BRANCH  10  13
ATOM     13  C5  <0> d          -0.014   1.204   0.009  0.00  0.00     0.175 C 
ATOM     14  O1  <0> d           0.002  -0.004   0.002  0.00  0.00    -0.648 OA
ATOM     15  O3  <0> d           1.139   1.891   0.001  0.00  0.00    -0.648 OA
ENDBRANCH  10  13
ENDBRANCH   1  10
BRANCH   1  16
ATOM     16  O2  <0> d          -2.455   0.181   1.236  0.00  0.00    -0.395 OA
ATOM     17  H9  <0> d          -2.550   0.722   2.032  0.00  0.00     0.210 HD
ENDBRANCH   1  16
TORSDOF 5
