REMARK  3 active torsions:
REMARK  status: ('A' for Active; 'I' for Inactive)
REMARK    1  A    between atoms: C1_1  and  C2_2 
REMARK    2  A    between atoms: C2_2  and  C3_4 
REMARK    3  A    between atoms: C2_2  and  O1_12 
ROOT
ATOM      1  C3  <0> d          -1.242   3.405   0.032  0.00  0.00    -0.027 A 
ATOM      2  C4  <0> d          -0.054   4.113   0.025  0.00  0.00    -0.071 A 
ATOM      3  C5  <0> d           1.153   3.441   0.010  0.00  0.00    -0.042 A 
ATOM      4  C6  <0> d           1.175   2.057   0.002  0.00  0.00     0.154 A 
ATOM      5  C7  <0> d          -0.016   1.347   0.009  0.00  0.00     0.155 A 
ATOM      6  C8  <0> d          -1.224   2.023   0.019  0.00  0.00    -0.034 A 
ATOM      7  F1  <0> d           0.002  -0.004   0.002  0.00  0.00    -0.203 F 
ATOM      8  F2  <0> d           2.354   1.399  -0.013  0.00  0.00    -0.203 F 
ATOM      9  H5  <0> d          -0.070   5.193   0.031  0.00  0.00     0.084 H 
ATOM     10  H6  <0> d           2.080   3.995   0.003  0.00  0.00     0.088 H 
ATOM     11  H7  <0> d          -2.152   1.471   0.020  0.00  0.00     0.089 H 
ENDROOT
BRANCH   1  12
ATOM     12  C2  <0> d          -2.557   4.141   0.049  0.00  0.00     0.057 C 
ATOM     13  H1  <0> d          -2.423   5.133  -0.381  0.00  0.00     0.089 H 
BRANCH  12  14
ATOM     14  C1  <0> d          -3.049   4.272   1.492  0.00  0.00    -0.049 C 
ATOM     15  H2  <0> d          -4.000   4.804   1.504  0.00  0.00     0.031 H 
ATOM     16  H3  <0> d          -3.183   3.279   1.922  0.00  0.00     0.031 H 
ATOM     17  H4  <0> d          -2.315   4.826   2.078  0.00  0.00     0.031 H 
ENDBRANCH  12  14
BRANCH  12  18
ATOM     18  O1  <0> d          -3.519   3.415  -0.718  0.00  0.00    -0.391 OA
ATOM     19  H8  <0> d          -4.391   3.831  -0.751  0.00  0.00     0.210 HD
ENDBRANCH  12  18
ENDBRANCH   1  12
TORSDOF 3
