REMARK  1 active torsions:
REMARK  status: ('A' for Active; 'I' for Inactive)
REMARK    1  A    between atoms: C9_9  and  O1_11 
ROOT
ATOM      1  C1  <0> d           3.867  -0.618   1.701  0.00  0.00    -0.082 A 
ATOM      2  C2  <0> d           3.015  -1.707   1.703  0.00  0.00    -0.082 A 
ATOM      3  C3  <0> d           1.746  -1.591   1.171  0.00  0.00    -0.074 A 
ATOM      4  C4  <0> d           1.323  -0.386   0.636  0.00  0.00    -0.023 A 
ATOM      5  C5  <0> d           2.174   0.703   0.633  0.00  0.00    -0.049 A 
ATOM      6  C6  <0> d           3.446   0.584   1.167  0.00  0.00    -0.076 A 
ATOM      7  C7  <0> d           1.484   1.891  -0.002  0.00  0.00    -0.038 C 
ATOM      8  C8  <0> d          -0.019   1.539   0.011  0.00  0.00    -0.033 C 
ATOM      9  C9  <0> d           0.002  -0.004   0.002  0.00  0.00     0.061 C 
ATOM     10  H1  <0> d          -0.050  -0.377  -1.021  0.00  0.00     0.090 H 
ATOM     11  H2  <0> d           4.859  -0.707   2.117  0.00  0.00     0.083 H 
ATOM     12  H3  <0> d           3.342  -2.648   2.121  0.00  0.00     0.083 H 
ATOM     13  H4  <0> d           1.081  -2.442   1.174  0.00  0.00     0.084 H 
ATOM     14  H5  <0> d           4.112   1.435   1.166  0.00  0.00     0.084 H 
ATOM     15  H6  <0> d           1.832   2.027  -1.026  0.00  0.00     0.040 H 
ATOM     16  H7  <0> d           1.666   2.792   0.584  0.00  0.00     0.040 H 
ATOM     17  H8  <0> d          -0.514   1.925  -0.880  0.00  0.00     0.037 H 
ATOM     18  H9  <0> d          -0.497   1.915   0.915  0.00  0.00     0.037 H 
ENDROOT
BRANCH   9  19
ATOM     19  O1  <0> d          -1.085  -0.519   0.773  0.00  0.00    -0.391 OA
ATOM     20  H10 <0> d          -1.123  -1.485   0.804  0.00  0.00     0.210 HD
ENDBRANCH   9  19
TORSDOF 1
