REMARK  0 active torsions:
REMARK  status: ('A' for Active; 'I' for Inactive)
ROOT
ATOM      1  C1  <0> d           3.249   2.909  -0.013  0.00  0.00    -0.059 A 
ATOM      2  C2  <0> d           1.893   2.892  -0.001  0.00  0.00    -0.049 A 
ATOM      3  C3  <0> d           1.218   1.656  -0.001  0.00  0.00     0.117 A 
ATOM      4  C4  <0> d           2.018   0.406  -0.015  0.00  0.00     0.119 A 
ATOM      5  C5  <0> d           3.423   0.503  -0.028  0.00  0.00    -0.030 A 
ATOM      6  C6  <0> d           4.005   1.729  -0.026  0.00  0.00     0.036 A 
ATOM      7 Cl1  <0> d           5.738   1.839  -0.042  0.00  0.00    -0.084 Cl
ATOM      8  N1  <0> d           1.098  -0.527  -0.011  0.00  0.00    -0.103 NA
ATOM      9  O1  <0> d           0.002  -0.004   0.002  0.00  0.00    -0.106 OA
ATOM     10  N2  <0> d          -0.014   1.210   0.009  0.00  0.00    -0.103 NA
ATOM     11  H1  <0> d           3.761   3.860  -0.013  0.00  0.00     0.086 H 
ATOM     12  H2  <0> d           1.337   3.817   0.009  0.00  0.00     0.087 H 
ATOM     13  H3  <0> d           4.031  -0.389  -0.038  0.00  0.00     0.089 H 
ENDROOT
TORSDOF 0
