REMARK  2 active torsions:
REMARK  status: ('A' for Active; 'I' for Inactive)
REMARK    1  A    between atoms: C1_1  and  C2_2 
REMARK    2  A    between atoms: C3_3  and  C4_8 
ROOT
ATOM      1  C2  <0> d           0.002  -0.004   0.002  0.00  0.00     0.089 A 
ATOM      2  C3  <0> d           0.024  -0.840   1.103  0.00  0.00     0.154 A 
ATOM      3  N1  <0> d           0.036  -2.114   0.592  0.00  0.00    -0.251 N 
ATOM      4  N2  <0> d           0.023  -2.027  -0.691  0.00  0.00    -0.068 NA
ATOM      5  H1  <0> d           0.053  -2.935   1.109  0.00  0.00     0.191 HD
ATOM      6  N3  <0> d          -0.003  -0.799  -1.068  0.00  0.00    -0.135 NA
ENDROOT
BRANCH   1   7
ATOM      7  C1  <0> d          -0.018   1.503   0.010  0.00  0.00    -0.031 C 
ATOM      8  H2  <0> d           1.004   1.880   0.003  0.00  0.00     0.035 H 
ATOM      9  H3  <0> d          -0.545   1.864  -0.873  0.00  0.00     0.035 H 
ATOM     10  H4  <0> d          -0.529   1.854   0.907  0.00  0.00     0.035 H 
ENDBRANCH   1   7
BRANCH   2  11
ATOM     11  C4  <0> d           0.032  -0.448   2.517  0.00  0.00     0.230 C 
ATOM     12  O1  <0> d           0.052  -1.306   3.390  0.00  0.00    -0.643 OA
ATOM     13  O2  <0> d           0.019   0.737   2.824  0.00  0.00    -0.643 OA
ENDBRANCH   2  11
TORSDOF 2
