REMARK  2 active torsions:
REMARK  status: ('A' for Active; 'I' for Inactive)
REMARK    1  A    between atoms: C1_1  and  C2_2 
REMARK    2  A    between atoms: C2_2  and  C8_8 
ROOT
ATOM      1  C2  <0> d           0.002  -0.004   0.002  0.00  0.00    -0.077 C 
ATOM      2  C3  <0> d          -1.161  -0.697   0.009  0.00  0.00    -0.035 A 
ATOM      3  C4  <0> d          -1.330  -2.163  -0.003  0.00  0.00    -0.073 A 
ATOM      4  C5  <0> d          -2.656  -2.407   0.014  0.00  0.00    -0.082 A 
ATOM      5  C6  <0> d          -3.377  -1.197   0.027  0.00  0.00    -0.082 A 
ATOM      6  C7  <0> d          -2.530  -0.147   0.025  0.00  0.00    -0.073 A 
ATOM      7  H4  <0> d          -0.540  -2.900  -0.020  0.00  0.00     0.084 H 
ATOM      8  H5  <0> d          -3.102  -3.391   0.012  0.00  0.00     0.083 H 
ATOM      9  H6  <0> d          -4.454  -1.121   0.038  0.00  0.00     0.083 H 
ATOM     10  H7  <0> d          -2.803   0.898   0.034  0.00  0.00     0.084 H 
ENDROOT
BRANCH   1  11
ATOM     11  C1  <0> d          -0.018   1.503   0.010  0.00  0.00    -0.054 C 
ATOM     12  H1  <0> d           1.004   1.880   0.003  0.00  0.00     0.033 H 
ATOM     13  H2  <0> d          -0.545   1.864  -0.873  0.00  0.00     0.033 H 
ATOM     14  H3  <0> d          -0.529   1.854   0.907  0.00  0.00     0.033 H 
ENDBRANCH   1  11
BRANCH   1  15
ATOM     15  C8  <0> d           1.317  -0.740  -0.015  0.00  0.00    -0.054 C 
ATOM     16  H8  <0> d           1.644  -0.923   1.009  0.00  0.00     0.033 H 
ATOM     17  H9  <0> d           1.195  -1.691  -0.532  0.00  0.00     0.033 H 
ATOM     18  H10 <0> d           2.064  -0.138  -0.532  0.00  0.00     0.033 H 
ENDBRANCH   1  15
TORSDOF 2
