REMARK  3 active torsions:
REMARK  status: ('A' for Active; 'I' for Inactive)
REMARK    1  A    between atoms: C1_1  and  C2_2 
REMARK    2  A    between atoms: C2_2  and  C3_3 
REMARK    3  A    between atoms: C3_3  and  C4_4 
ROOT
ATOM      1  C3  <0> d           1.304  -2.151  -0.021  0.00  0.00    -0.025 C 
ATOM      2  H6  <0> d           0.289  -2.568  -0.104  0.00  0.00     0.042 H 
ATOM      3  H7  <0> d           1.769  -2.500   0.912  0.00  0.00     0.042 H 
ENDROOT
BRANCH   1   4
ATOM      4  C2  <0> d           2.144  -2.614  -1.214  0.00  0.00    -0.063 C 
ATOM      5  H4  <0> d           3.158  -2.197  -1.131  0.00  0.00     0.033 H 
ATOM      6  H5  <0> d           1.679  -2.264  -2.147  0.00  0.00     0.033 H 
BRANCH   4   7
ATOM      7  C1  <0> d           2.219  -4.142  -1.222  0.00  0.00    -0.076 C 
ATOM      8  H1  <0> d           2.823  -4.474  -2.079  0.00  0.00     0.027 H 
ATOM      9  H2  <0> d           1.205  -4.559  -1.305  0.00  0.00     0.027 H 
ATOM     10  H3  <0> d           2.684  -4.491  -0.288  0.00  0.00     0.027 H 
ENDBRANCH   4   7
ENDBRANCH   1   4
BRANCH   1  11
ATOM     11  C4  <0> d           1.230  -0.646  -0.013  0.00  0.00     0.039 A 
ATOM     12  N2  <0> d           2.336   0.080  -0.020  0.00  0.00    -0.246 NA
ATOM     13  C7  <0> d           2.281   1.397  -0.012  0.00  0.00     0.088 A 
ATOM     14  N1  <0> d           1.132   2.043   0.002  0.00  0.00    -0.230 NA
ATOM     15  H9  <0> d           3.201   1.962  -0.018  0.00  0.00     0.146 H 
ATOM     16  C6  <0> d          -0.017   1.384   0.010  0.00  0.00     0.129 A 
ATOM     17  C5  <0> d           0.002  -0.004   0.002  0.00  0.00    -0.020 A 
ATOM     18 Cl1  <0> d          -1.525   2.243   0.021  0.00  0.00    -0.062 Cl
ATOM     19  H8  <0> d          -0.918  -0.570   0.008  0.00  0.00     0.091 H 
ENDBRANCH   1  11
TORSDOF 3
