REMARK  3 active torsions:
REMARK  status: ('A' for Active; 'I' for Inactive)
REMARK    1  A    between atoms: C1_1  and  C2_2 
REMARK    2  A    between atoms: C2_2  and  C3_4 
REMARK    3  A    between atoms: C2_2  and  C9_10 
ROOT
ATOM      1  C3  <0> d          -2.462   0.945   0.019  0.00  0.00    -0.044 A 
ATOM      2  C4  <0> d          -2.578   0.030   1.048  0.00  0.00    -0.076 A 
ATOM      3  C5  <0> d          -3.618  -0.880   1.051  0.00  0.00    -0.082 A 
ATOM      4  C6  <0> d          -4.538  -0.880   0.019  0.00  0.00    -0.083 A 
ATOM      5  C7  <0> d          -4.419   0.032  -1.014  0.00  0.00    -0.082 A 
ATOM      6  C8  <0> d          -3.381   0.944  -1.014  0.00  0.00    -0.076 A 
ATOM      7  H5  <0> d          -1.857   0.028   1.853  0.00  0.00     0.084 H 
ATOM      8  H6  <0> d          -3.712  -1.592   1.857  0.00  0.00     0.083 H 
ATOM      9  H7  <0> d          -5.350  -1.593   0.019  0.00  0.00     0.083 H 
ATOM     10  H8  <0> d          -5.138   0.031  -1.820  0.00  0.00     0.083 H 
ATOM     11  H9  <0> d          -3.288   1.656  -1.820  0.00  0.00     0.084 H 
ENDROOT
BRANCH   1  12
ATOM     12  C2  <0> d          -1.329   1.940   0.019  0.00  0.00     0.052 C 
ATOM     13  H1  <0> d          -1.399   2.563  -0.885  0.00  0.00     0.063 H 
BRANCH  12  14
ATOM     14  C1  <0> d          -1.417   2.811   1.273  0.00  0.00    -0.060 C 
ATOM     15  H2  <0> d          -0.590   3.538   1.273  0.00  0.00     0.029 H 
ATOM     16  H3  <0> d          -1.345   2.175   2.168  0.00  0.00     0.029 H 
ATOM     17  H4  <0> d          -2.377   3.348   1.281  0.00  0.00     0.029 H 
ENDBRANCH  12  14
BRANCH  12  18
ATOM     18  C9  <0> d          -0.014   1.204   0.009  0.00  0.00     0.181 C 
ATOM     19  O1  <0> d           0.002  -0.004   0.002  0.00  0.00    -0.647 OA
ATOM     20  O2  <0> d           1.139   1.891   0.001  0.00  0.00    -0.647 OA
ENDBRANCH  12  18
ENDBRANCH   1  12
TORSDOF 3
