REMARK  0 active torsions:
REMARK  status: ('A' for Active; 'I' for Inactive)
ROOT
ATOM      1  C1  <0> d           4.773   1.216  -0.038  0.00  0.00    -0.082 A 
ATOM      2  C2  <0> d           4.705  -0.176  -0.045  0.00  0.00    -0.081 A 
ATOM      3  C3  <0> d           3.507  -0.820  -0.036  0.00  0.00    -0.054 A 
ATOM      4  C4  <0> d           2.314  -0.074  -0.021  0.00  0.00     0.068 A 
ATOM      5  C5  <0> d           2.388   1.340  -0.014  0.00  0.00     0.013 A 
ATOM      6  C6  <0> d           3.639   1.970  -0.023  0.00  0.00    -0.069 A 
ATOM      7  C7  <0> d           1.183   2.090   0.002  0.00  0.00     0.058 A 
ATOM      8  C8  <0> d          -0.017   1.387   0.010  0.00  0.00    -0.045 A 
ATOM      9  C9  <0> d           0.002  -0.004   0.002  0.00  0.00     0.004 A 
ATOM     10  N1  <0> d           1.124  -0.681  -0.012  0.00  0.00    -0.260 NA
ATOM     11  C10 <0> d           1.202   3.522   0.009  0.00  0.00     0.100 C 
ATOM     12  N2  <0> d           1.217   4.657   0.015  0.00  0.00    -0.191 NA
ATOM     13  H1  <0> d           5.737   1.703  -0.045  0.00  0.00     0.083 H 
ATOM     14  H2  <0> d           5.619  -0.752  -0.057  0.00  0.00     0.083 H 
ATOM     15  H3  <0> d           3.471  -1.899  -0.042  0.00  0.00     0.087 H 
ATOM     16  H4  <0> d           3.704   3.049  -0.018  0.00  0.00     0.085 H 
ATOM     17  H5  <0> d          -0.957   1.918   0.017  0.00  0.00     0.088 H 
ATOM     18  H6  <0> d          -0.935  -0.541   0.008  0.00  0.00     0.114 H 
ENDROOT
TORSDOF 0
