REMARK  0 active torsions:
REMARK  status: ('A' for Active; 'I' for Inactive)
ROOT
ATOM      1  C1  <0> d          -0.017   1.384   0.010  0.00  0.00    -0.060 A 
ATOM      2  C2  <0> d           1.162   2.099   0.002  0.00  0.00    -0.053 A 
ATOM      3  C3  <0> d           2.377   1.428  -0.013  0.00  0.00     0.062 A 
ATOM      4  C4  <0> d           2.402   0.023  -0.021  0.00  0.00     0.086 A 
ATOM      5  C5  <0> d           1.198  -0.687  -0.013  0.00  0.00    -0.032 A 
ATOM      6  C6  <0> d           0.002  -0.004   0.002  0.00  0.00     0.036 A 
ATOM      7 Cl1  <0> d          -1.493  -0.886   0.012  0.00  0.00    -0.084 Cl
ATOM      8  N1  <0> d           3.707  -0.350  -0.035  0.00  0.00    -0.242 NA
ATOM      9  C7  <0> d           4.464   0.709  -0.037  0.00  0.00     0.065 A 
ATOM     10  N2  <0> d           3.697   1.832  -0.023  0.00  0.00    -0.349 N 
ATOM     11  H1  <0> d           4.018   2.747  -0.022  0.00  0.00     0.167 HD
ATOM     12  H2  <0> d          -0.961   1.908   0.026  0.00  0.00     0.086 H 
ATOM     13  H3  <0> d           1.140   3.179   0.008  0.00  0.00     0.087 H 
ATOM     14  H4  <0> d           1.206  -1.767  -0.019  0.00  0.00     0.089 H 
ATOM     15  H5  <0> d           5.544   0.697  -0.047  0.00  0.00     0.143 H 
ENDROOT
TORSDOF 0
