REMARK  2 active torsions:
REMARK  status: ('A' for Active; 'I' for Inactive)
REMARK    1  A    between atoms: C1_1  and  C2_2 
REMARK       I    between atoms: C2_2  and  N1_4 
REMARK    2  A    between atoms: C6_8  and  O2_11 
ROOT
ATOM      1  C2  <0> d          -0.686  -0.695  -0.928  0.00  0.00     0.215 C 
ATOM      2  O1  <0> d          -1.244  -0.092  -1.820  0.00  0.00    -0.274 OA
ATOM      3  N1  <0> d          -0.172  -0.023   0.121  0.00  0.00    -0.350 N 
ATOM      4  C3  <0> d           0.395  -0.746   1.267  0.00  0.00    -0.002 C 
ATOM      5  C4  <0> d           1.817  -0.234   1.518  0.00  0.00    -0.048 C 
ATOM      6  C5  <0> d           1.786   1.286   1.687  0.00  0.00    -0.038 C 
ATOM      7  C6  <0> d           1.259   1.933   0.403  0.00  0.00     0.051 C 
ATOM      8  H1  <0> d           1.919   1.722  -0.451  0.00  0.00     0.085 H 
ATOM      9  C7  <0> d          -0.170   1.446   0.140  0.00  0.00     0.021 C 
ATOM     10  H5  <0> d          -0.227  -0.569   2.157  0.00  0.00     0.064 H 
ATOM     11  H6  <0> d           0.420  -1.823   1.046  0.00  0.00     0.064 H 
ATOM     12  H7  <0> d           2.218  -0.698   2.431  0.00  0.00     0.035 H 
ATOM     13  H8  <0> d           2.458  -0.496   0.662  0.00  0.00     0.035 H 
ATOM     14  H9  <0> d           1.126   1.548   2.526  0.00  0.00     0.036 H 
ATOM     15  H10 <0> d           2.802   1.654   1.891  0.00  0.00     0.036 H 
ATOM     16  H11 <0> d          -0.520   1.826  -0.830  0.00  0.00     0.068 H 
ATOM     17  H12 <0> d          -0.838   1.803   0.938  0.00  0.00     0.068 H 
ENDROOT
BRANCH   1  18
ATOM     18  C1  <0> d          -0.566  -2.196  -0.994  0.00  0.00    -0.003 C 
ATOM     19  H2  <0> d          -0.033  -2.560  -0.103  0.00  0.00     0.040 H 
ATOM     20  H3  <0> d          -0.007  -2.480  -1.898  0.00  0.00     0.040 H 
ATOM     21  H4  <0> d          -1.571  -2.643  -1.028  0.00  0.00     0.040 H 
ENDBRANCH   1  18
BRANCH   7  22
ATOM     22  O2  <0> d           1.259   3.354   0.551  0.00  0.00    -0.394 OA
ATOM     23  H13 <0> d           0.911   3.993  -0.274  0.00  0.00     0.210 HD
ENDBRANCH   7  22
TORSDOF 2
