REMARK  5 active torsions:
REMARK  status: ('A' for Active; 'I' for Inactive)
REMARK    1  A    between atoms: C1_1  and  C2_2 
REMARK    2  A    between atoms: C2_2  and  N1_3 
REMARK    3  A    between atoms: C5_6  and  C6_8 
REMARK    4  A    between atoms: C6_8  and  O2_10 
REMARK    5  A    between atoms: O2_10  and  C7_11 
ROOT
ATOM      1  N1  <0> d          -0.656   3.155   0.025  0.00  0.00    -0.281 N 
ATOM      2  C3  <0> d          -1.101   1.880   0.017  0.00  0.00     0.001 A 
ATOM      3  C4  <0> d          -0.013   1.076   0.008  0.00  0.00    -0.031 A 
ATOM      4  C5  <0> d           1.102   1.948   0.002  0.00  0.00     0.153 A 
ATOM      5  N2  <0> d           0.628   3.178   0.013  0.00  0.00    -0.167 NA
ATOM      6  H6  <0> d          -2.133   1.562   0.019  0.00  0.00     0.114 H 
ATOM      7  H7  <0> d           0.002  -0.004   0.002  0.00  0.00     0.089 H 
ENDROOT
BRANCH   1   8
ATOM      8  C2  <0> d          -1.515   4.342   0.038  0.00  0.00     0.013 C 
ATOM      9  H4  <0> d          -1.384   4.896  -0.892  0.00  0.00     0.066 H 
ATOM     10  H5  <0> d          -2.557   4.036   0.136  0.00  0.00     0.066 H 
BRANCH   8  11
ATOM     11  C1  <0> d          -1.133   5.234   1.221  0.00  0.00    -0.059 C 
ATOM     12  H1  <0> d          -1.264   4.681   2.151  0.00  0.00     0.029 H 
ATOM     13  H2  <0> d          -0.091   5.541   1.123  0.00  0.00     0.029 H 
ATOM     14  H3  <0> d          -1.772   6.118   1.231  0.00  0.00     0.029 H 
ENDBRANCH   8  11
ENDBRANCH   1   8
BRANCH   4  15
ATOM     15  C6  <0> d           2.525   1.555  -0.013  0.00  0.00     0.313 C 
ATOM     16  O1  <0> d           2.830   0.379  -0.022  0.00  0.00    -0.257 OA
BRANCH  15  17
ATOM     17  O2  <0> d           3.485   2.500  -0.017  0.00  0.00    -0.321 OA
BRANCH  17  18
ATOM     18  C7  <0> d           4.862   2.041  -0.033  0.00  0.00     0.013 C 
ATOM     19  H8  <0> d           5.036   1.443  -0.927  0.00  0.00     0.067 H 
ATOM     20  H9  <0> d           5.532   2.900  -0.034  0.00  0.00     0.067 H 
ATOM     21  H10 <0> d           5.053   1.434   0.853  0.00  0.00     0.067 H 
ENDBRANCH  17  18
ENDBRANCH  15  17
ENDBRANCH   4  15
TORSDOF 5
