REMARK  6 active torsions:
REMARK  status: ('A' for Active; 'I' for Inactive)
REMARK    1  A    between atoms: C1_1  and  C2_2 
REMARK    2  A    between atoms: C2_2  and  O1_3 
REMARK    3  A    between atoms: O1_3  and  C3_4 
REMARK       I    between atoms: C3_4  and  N1_6 
REMARK    4  A    between atoms: N1_6  and  C4_7 
REMARK    5  A    between atoms: C4_7  and  C5_8 
REMARK    6  A    between atoms: C4_7  and  C6_9 
ROOT
ATOM      1  C3  <0> d          -1.187   1.624   0.017  0.00  0.00     0.360 C 
ATOM      2  O2  <0> d          -1.204   2.839   0.023  0.00  0.00    -0.239 OA
ATOM      3  N1  <0> d          -0.011   0.966   0.007  0.00  0.00    -0.333 N 
ATOM      4  H6  <0> d           0.002  -0.004   0.002  0.00  0.00     0.165 HD
ENDROOT
BRANCH   3   5
ATOM      5  C4  <0> d           1.248   1.716  -0.001  0.00  0.00     0.007 C 
ATOM      6  H7  <0> d           1.135   2.622   0.595  0.00  0.00     0.071 H 
BRANCH   5   7
ATOM      7  C5  <0> d           2.361   0.850   0.594  0.00  0.00    -0.058 C 
ATOM      8  H8  <0> d           2.473  -0.056  -0.002  0.00  0.00     0.030 H 
ATOM      9  H9  <0> d           3.297   1.408   0.588  0.00  0.00     0.030 H 
ATOM     10  H10 <0> d           2.104   0.582   1.619  0.00  0.00     0.030 H 
ENDBRANCH   5   7
BRANCH   5  11
ATOM     11  C6  <0> d           1.608   2.092  -1.439  0.00  0.00    -0.058 C 
ATOM     12  H11 <0> d           1.721   1.186  -2.035  0.00  0.00     0.030 H 
ATOM     13  H12 <0> d           0.815   2.709  -1.863  0.00  0.00     0.030 H 
ATOM     14  H13 <0> d           2.544   2.650  -1.445  0.00  0.00     0.030 H 
ENDBRANCH   5  11
ENDBRANCH   3   5
BRANCH   1  15
ATOM     15  O1  <0> d          -2.344   0.935   0.018  0.00  0.00    -0.304 OA
BRANCH  15  16
ATOM     16  C2  <0> d          -3.572   1.709   0.028  0.00  0.00     0.027 C 
ATOM     17  H4  <0> d          -3.602   2.333   0.922  0.00  0.00     0.074 H 
ATOM     18  H5  <0> d          -3.610   2.342  -0.858  0.00  0.00     0.074 H 
BRANCH  16  19
ATOM     19  C1  <0> d          -4.773   0.761   0.029  0.00  0.00    -0.056 C 
ATOM     20  H1  <0> d          -4.744   0.137  -0.865  0.00  0.00     0.030 H 
ATOM     21  H2  <0> d          -4.735   0.127   0.915  0.00  0.00     0.030 H 
ATOM     22  H3  <0> d          -5.695   1.342   0.036  0.00  0.00     0.030 H 
ENDBRANCH  16  19
ENDBRANCH  15  16
ENDBRANCH   1  15
TORSDOF 6
