REMARK  0 active torsions:
REMARK  status: ('A' for Active; 'I' for Inactive)
ROOT
ATOM      1  C1  <0> d          -0.013   1.076   0.008  0.00  0.00    -0.063 A 
ATOM      2  C2  <0> d           1.173   1.794   0.001  0.00  0.00    -0.043 A 
ATOM      3  C3  <0> d           1.106   3.180   0.009  0.00  0.00     0.133 A 
ATOM      4  C4  <0> d          -0.135   3.794   0.024  0.00  0.00     0.039 A 
ATOM      5  N1  <0> d          -1.241   3.077   0.030  0.00  0.00    -0.270 NA
ATOM      6  C5  <0> d          -1.214   1.759   0.017  0.00  0.00     0.002 A 
ATOM      7  F1  <0> d           2.236   3.921   0.002  0.00  0.00    -0.205 F 
ATOM      8  H1  <0> d           0.002  -0.004   0.002  0.00  0.00     0.085 H 
ATOM      9  H2  <0> d           2.127   1.286  -0.012  0.00  0.00     0.088 H 
ATOM     10  H3  <0> d          -0.197   4.873   0.031  0.00  0.00     0.119 H 
ATOM     11  H4  <0> d          -2.142   1.206   0.018  0.00  0.00     0.114 H 
ENDROOT
TORSDOF 0
