REMARK  3 active torsions:
REMARK  status: ('A' for Active; 'I' for Inactive)
REMARK    1  A    between atoms: C1_1  and  O1_2 
REMARK    2  A    between atoms: O1_2  and  C2_3 
REMARK    3  A    between atoms: C2_3  and  C3_5 
ROOT
ATOM      1  C3  <0> d           0.659  -2.069  -1.122  0.00  0.00     0.124 A 
ATOM      2  C4  <0> d           1.276  -2.713  -2.192  0.00  0.00     0.025 A 
ATOM      3  N1  <0> d           1.308  -4.041  -2.224  0.00  0.00    -0.255 NA
ATOM      4  C5  <0> d           0.778  -4.776  -1.282  0.00  0.00     0.066 A 
ATOM      5  N2  <0> d           0.160  -4.249  -0.210  0.00  0.00    -0.317 N 
ATOM      6  H1  <0> d          -0.219  -4.833   0.465  0.00  0.00     0.170 HD
ATOM      7  C6  <0> d           0.073  -2.908  -0.070  0.00  0.00     0.264 A 
ATOM      8  O3  <0> d          -0.478  -2.412   0.897  0.00  0.00    -0.267 OA
ATOM      9  H5  <0> d           1.725  -2.138  -2.989  0.00  0.00     0.116 H 
ATOM     10  H6  <0> d           0.839  -5.851  -1.368  0.00  0.00     0.143 H 
ENDROOT
BRANCH   1  11
ATOM     11  C2  <0> d           0.601  -0.602  -1.047  0.00  0.00     0.299 C 
ATOM     12  O2  <0> d           1.093   0.071  -1.931  0.00  0.00    -0.259 OA
BRANCH  11  13
ATOM     13  O1  <0> d           0.002  -0.004   0.002  0.00  0.00    -0.322 OA
BRANCH  13  14
ATOM     14  C1  <0> d          -0.017   1.425   0.010  0.00  0.00     0.013 C 
ATOM     15  H2  <0> d           1.005   1.802   0.002  0.00  0.00     0.067 H 
ATOM     16  H3  <0> d          -0.544   1.786  -0.873  0.00  0.00     0.067 H 
ATOM     17  H4  <0> d          -0.527   1.776   0.907  0.00  0.00     0.067 H 
ENDBRANCH  13  14
ENDBRANCH  11  13
ENDBRANCH   1  11
TORSDOF 3
