REMARK  3 active torsions:
REMARK  status: ('A' for Active; 'I' for Inactive)
REMARK    1  A    between atoms: C3_4  and  N6_11 
REMARK    2  A    between atoms: C4_6  and  N5_10 
REMARK    3  A    between atoms: C5_8  and  N4_9 
ROOT
ATOM      1  C1  <0> d           0.002  -0.004   0.002  0.00  0.00     0.107 C 
ATOM      2  N1  <0> d           0.018  -1.140  -0.004  0.00  0.00    -0.191 NA
ATOM      3  C2  <0> d          -0.017   1.428   0.010  0.00  0.00     0.136 A 
ATOM      4  C3  <0> d          -1.236   2.137   0.031  0.00  0.00     0.165 A 
ATOM      5  N2  <0> d          -1.205   3.465   0.038  0.00  0.00    -0.044 NA
ATOM      6  C4  <0> d          -0.054   4.121   0.025  0.00  0.00     0.724 A 
ATOM      7  N3  <0> d           1.115   3.496   0.004  0.00  0.00    -0.044 NA
ATOM      8  C5  <0> d           1.181   2.170   0.002  0.00  0.00     0.165 A 
ENDROOT
BRANCH   8   9
ATOM      9  N4  <0> d           2.403   1.528  -0.013  0.00  0.00    -0.382 N 
ATOM     10  H1  <0> d           2.442   0.559  -0.018  0.00  0.00     0.157 HD
ATOM     11  H2  <0> d           3.223   2.046  -0.018  0.00  0.00     0.157 HD
ENDBRANCH   8   9
BRANCH   4  12
ATOM     12  N6  <0> d          -2.440   1.462   0.045  0.00  0.00    -0.382 N 
ATOM     13  H5  <0> d          -2.452   0.492   0.039  0.00  0.00     0.157 HD
ATOM     14  H6  <0> d          -3.273   1.958   0.059  0.00  0.00     0.157 HD
ENDBRANCH   4  12
BRANCH   6  15
ATOM     15  N5  <0> d          -0.073   5.502   0.032  0.00  0.00    -0.231 N 
ATOM     16  H3  <0> d          -0.919   5.975   0.047  0.00  0.00     0.174 HD
ATOM     17  H4  <0> d           0.761   5.998   0.023  0.00  0.00     0.174 HD
ENDBRANCH   6  15
TORSDOF 3
