REMARK  2 active torsions:
REMARK  status: ('A' for Active; 'I' for Inactive)
REMARK    1  A    between atoms: C1_1  and  C2_2 
REMARK    2  A    between atoms: C3_5  and  C4_7 
ROOT
ATOM      1  C2  <0> d           0.002  -0.004   0.002  0.00  0.00     0.095 A 
ATOM      2  N1  <0> d           0.023  -0.847   1.012  0.00  0.00    -0.147 NA
ATOM      3  N2  <0> d           0.037  -2.094   0.809  0.00  0.00    -0.147 NA
ATOM      4  C3  <0> d           0.032  -2.572  -0.417  0.00  0.00     0.095 A 
ATOM      5  S1  <0> d          -0.003  -1.103  -1.344  0.00  0.00    -0.057 SA
ENDROOT
BRANCH   1   6
ATOM      6  C1  <0> d          -0.018   1.503   0.010  0.00  0.00    -0.028 C 
ATOM      7  H1  <0> d           1.004   1.880   0.003  0.00  0.00     0.036 H 
ATOM      8  H2  <0> d          -0.545   1.864  -0.873  0.00  0.00     0.036 H 
ATOM      9  H3  <0> d          -0.529   1.854   0.907  0.00  0.00     0.036 H 
ENDBRANCH   1   6
BRANCH   4  10
ATOM     10  C4  <0> d           0.045  -4.003  -0.888  0.00  0.00    -0.028 C 
ATOM     11  H4  <0> d          -0.979  -4.362  -0.992  0.00  0.00     0.036 H 
ATOM     12  H5  <0> d           0.551  -4.064  -1.852  0.00  0.00     0.036 H 
ATOM     13  H6  <0> d           0.574  -4.620  -0.162  0.00  0.00     0.036 H 
ENDBRANCH   4  10
TORSDOF 2
