REMARK  1 active torsions:
REMARK  status: ('A' for Active; 'I' for Inactive)
REMARK    1  A    between atoms: C2_2  and  N4_9 
ROOT
ATOM      1  C1  <0> d          -0.016   1.315   0.009  0.00  0.00     0.032 A 
ATOM      2  C2  <0> d           1.195   2.010   0.001  0.00  0.00     0.061 A 
ATOM      3  C3  <0> d           2.382   1.276  -0.014  0.00  0.00     0.032 A 
ATOM      4  N1  <0> d           2.320  -0.042  -0.020  0.00  0.00    -0.230 NA
ATOM      5  C4  <0> d           1.150  -0.669  -0.013  0.00  0.00     0.231 A 
ATOM      6  N2  <0> d           0.002  -0.004   0.002  0.00  0.00    -0.230 NA
ATOM      7  C5  <0> d           1.127  -2.100  -0.020  0.00  0.00     0.141 C 
ATOM      8  N3  <0> d           1.108  -3.236  -0.026  0.00  0.00    -0.188 NA
ATOM      9  H1  <0> d          -0.954   1.850   0.026  0.00  0.00     0.118 H 
ATOM     10  H2  <0> d           3.337   1.779  -0.021  0.00  0.00     0.118 H 
ENDROOT
BRANCH   2  11
ATOM     11  N4  <0> d           1.218   3.403   0.008  0.00  0.00    -0.397 N 
ATOM     12  H3  <0> d           0.386   3.902   0.019  0.00  0.00     0.156 HD
ATOM     13  H4  <0> d           2.066   3.874   0.003  0.00  0.00     0.156 HD
ENDBRANCH   2  11
TORSDOF 1
