REMARK  3 active torsions:
REMARK  status: ('A' for Active; 'I' for Inactive)
REMARK    1  A    between atoms: C1_1  and  C2_2 
REMARK    2  A    between atoms: C4_4  and  C7_10 
REMARK       I    between atoms: N1_5  and  C5_7 
REMARK    3  A    between atoms: C5_7  and  C6_9 
ROOT
ATOM      1  C2  <0> d          -2.640   3.510   0.033  0.00  0.00     0.053 A 
ATOM      2  C3  <0> d          -3.337   2.294   0.030  0.00  0.00    -0.034 A 
ATOM      3  C4  <0> d          -2.430   1.293   0.015  0.00  0.00     0.037 A 
ATOM      4  N1  <0> d          -1.190   1.862   0.018  0.00  0.00    -0.206 N 
ATOM      5  N2  <0> d          -1.359   3.253   0.026  0.00  0.00    -0.170 NA
ATOM      6  C5  <0> d          -0.014   1.204   0.009  0.00  0.00     0.240 C 
ATOM      7  O1  <0> d           0.002  -0.004   0.002  0.00  0.00    -0.272 OA
ATOM      8  H4  <0> d          -4.410   2.177   0.034  0.00  0.00     0.089 H 
ENDROOT
BRANCH   3   9
ATOM      9  C7  <0> d          -2.732  -0.183   0.002  0.00  0.00    -0.035 C 
ATOM     10  H8  <0> d          -2.803  -0.549   1.026  0.00  0.00     0.035 H 
ATOM     11  H9  <0> d          -3.678  -0.355  -0.512  0.00  0.00     0.035 H 
ATOM     12  H10 <0> d          -1.934  -0.713  -0.519  0.00  0.00     0.035 H 
ENDBRANCH   3   9
BRANCH   6  13
ATOM     13  C6  <0> d           1.280   1.975   0.000  0.00  0.00    -0.001 C 
ATOM     14  H5  <0> d           2.118   1.278  -0.011  0.00  0.00     0.040 H 
ATOM     15  H6  <0> d           1.321   2.607  -0.887  0.00  0.00     0.040 H 
ATOM     16  H7  <0> d           1.338   2.598   0.893  0.00  0.00     0.040 H 
ENDBRANCH   6  13
BRANCH   1  17
ATOM     17  C1  <0> d          -3.263   4.883   0.042  0.00  0.00    -0.034 C 
ATOM     18  H1  <0> d          -3.417   5.218  -0.984  0.00  0.00     0.035 H 
ATOM     19  H2  <0> d          -4.221   4.843   0.560  0.00  0.00     0.035 H 
ATOM     20  H3  <0> d          -2.600   5.579   0.556  0.00  0.00     0.035 H 
ENDBRANCH   1  17
TORSDOF 3
