REMARK  2 active torsions:
REMARK  status: ('A' for Active; 'I' for Inactive)
REMARK    1  A    between atoms: C1_1  and  S1_2 
REMARK    2  A    between atoms: S1_2  and  C2_4 
ROOT
ATOM      1  C2  <0> d           0.848  -0.411  -1.489  0.00  0.00     0.034 A 
ATOM      2  C3  <0> d           0.138  -0.576  -2.664  0.00  0.00    -0.064 A 
ATOM      3  C4  <0> d           0.801  -0.894  -3.834  0.00  0.00    -0.079 A 
ATOM      4  C5  <0> d           2.174  -1.050  -3.831  0.00  0.00    -0.046 A 
ATOM      5  C6  <0> d           2.886  -0.885  -2.655  0.00  0.00     0.117 A 
ATOM      6  C7  <0> d           2.222  -0.559  -1.485  0.00  0.00    -0.027 A 
ATOM      7  F1  <0> d           4.229  -1.036  -2.651  0.00  0.00    -0.206 F 
ATOM      8  H4  <0> d          -0.935  -0.455  -2.667  0.00  0.00     0.085 H 
ATOM      9  H5  <0> d           0.245  -1.023  -4.751  0.00  0.00     0.083 H 
ATOM     10  H6  <0> d           2.692  -1.300  -4.746  0.00  0.00     0.088 H 
ATOM     11  H7  <0> d           2.777  -0.426  -0.568  0.00  0.00     0.090 H 
ENDROOT
BRANCH   1  12
ATOM     12  S1  <0> d           0.002  -0.004   0.002  0.00  0.00     0.045 S 
ATOM     13  O1  <0> d           0.868  -0.472   1.027  0.00  0.00    -0.253 OA
BRANCH  12  14
ATOM     14  C1  <0> d          -0.022   1.810   0.012  0.00  0.00    -0.004 C 
ATOM     15  H1  <0> d           1.000   2.187   0.004  0.00  0.00     0.045 H 
ATOM     16  H2  <0> d          -0.550   2.171  -0.871  0.00  0.00     0.045 H 
ATOM     17  H3  <0> d          -0.533   2.161   0.909  0.00  0.00     0.045 H 
ENDBRANCH  12  14
ENDBRANCH   1  12
TORSDOF 2
