REMARK  4 active torsions:
REMARK  status: ('A' for Active; 'I' for Inactive)
REMARK    1  A    between atoms: C1_1  and  C2_2 
REMARK    2  A    between atoms: C3_3  and  C7_9 
REMARK    3  A    between atoms: N1_4  and  C6_8 
REMARK    4  A    between atoms: C4_5  and  C5_7 
ROOT
ATOM      1  C2  <0> d          -2.239   2.223   2.606  0.00  0.00     0.055 A 
ATOM      2  C3  <0> d          -2.037   1.815   1.338  0.00  0.00     0.033 A 
ATOM      3  N1  <0> d          -0.698   1.558   1.213  0.00  0.00    -0.342 N 
ATOM      4  C4  <0> d          -0.127   1.827   2.407  0.00  0.00     0.102 A 
ATOM      5  N2  <0> d          -1.054   2.224   3.235  0.00  0.00    -0.239 NA
ENDROOT
BRANCH   1   6
ATOM      6  C1  <0> d          -3.563   2.615   3.210  0.00  0.00    -0.034 C 
ATOM      7  H1  <0> d          -3.728   3.683   3.062  0.00  0.00     0.035 H 
ATOM      8  H2  <0> d          -4.363   2.054   2.727  0.00  0.00     0.035 H 
ATOM      9  H3  <0> d          -3.555   2.393   4.277  0.00  0.00     0.035 H 
ENDBRANCH   1   6
BRANCH   2  10
ATOM     10  C7  <0> d          -3.084   1.667   0.265  0.00  0.00    -0.035 C 
ATOM     11  H10 <0> d          -3.497   0.659   0.296  0.00  0.00     0.035 H 
ATOM     12  H11 <0> d          -3.882   2.391   0.433  0.00  0.00     0.035 H 
ATOM     13  H12 <0> d          -2.632   1.845  -0.711  0.00  0.00     0.035 H 
ENDBRANCH   2  10
BRANCH   4  14
ATOM     14  C5  <0> d           1.339   1.692   2.729  0.00  0.00    -0.021 C 
ATOM     15  H4  <0> d           1.847   2.632   2.514  0.00  0.00     0.037 H 
ATOM     16  H5  <0> d           1.458   1.448   3.785  0.00  0.00     0.037 H 
ATOM     17  H6  <0> d           1.773   0.897   2.122  0.00  0.00     0.037 H 
ENDBRANCH   4  14
BRANCH   3  18
ATOM     18  C6  <0> d          -0.013   1.086   0.008  0.00  0.00    -0.013 C 
ATOM     19  H7  <0> d           0.002  -0.004   0.002  0.00  0.00     0.057 H 
ATOM     20  H8  <0> d           1.010   1.463   0.000  0.00  0.00     0.057 H 
ATOM     21  H9  <0> d          -0.540   1.447  -0.875  0.00  0.00     0.057 H 
ENDBRANCH   3  18
TORSDOF 4
