REMARK  5 active torsions:
REMARK  status: ('A' for Active; 'I' for Inactive)
REMARK    1  A    between atoms: C1_1  and  C2_2 
REMARK    2  A    between atoms: C2_2  and  C3_4 
REMARK    3  A    between atoms: C2_2  and  C8_10 
REMARK    4  A    between atoms: C3_4  and  C4_5 
REMARK    5  A    between atoms: C8_10  and  C9_12 
ROOT
ATOM      1  C2  <0> d           0.002  -0.004   0.002  0.00  0.00     0.005 C 
ATOM      2  H1  <0> d           0.512  -0.356  -0.895  0.00  0.00     0.051 H 
ENDROOT
BRANCH   1   3
ATOM      3  C1  <0> d          -0.019   1.526   0.010  0.00  0.00    -0.066 C 
ATOM      4  H2  <0> d           1.004   1.903   0.003  0.00  0.00     0.028 H 
ATOM      5  H3  <0> d          -0.546   1.887  -0.873  0.00  0.00     0.028 H 
ATOM      6  H4  <0> d          -0.529   1.877   0.907  0.00  0.00     0.028 H 
ENDBRANCH   1   3
BRANCH   1   7
ATOM      7  C3  <0> d          -1.433  -0.534   0.013  0.00  0.00    -0.011 C 
ATOM      8  H5  <0> d          -1.419  -1.620   0.097  0.00  0.00     0.044 H 
ATOM      9  H6  <0> d          -1.970  -0.111   0.862  0.00  0.00     0.044 H 
BRANCH   7  10
ATOM     10  C4  <0> d          -2.125  -0.137  -1.266  0.00  0.00     0.053 A 
ATOM     11  O1  <0> d          -2.823   0.993  -1.464  0.00  0.00    -0.327 OA
ATOM     12  C7  <0> d          -3.294   1.014  -2.721  0.00  0.00     0.019 A 
ATOM     13  C6  <0> d          -2.906  -0.116  -3.340  0.00  0.00    -0.059 A 
ATOM     14  H9  <0> d          -3.887   1.802  -3.161  0.00  0.00     0.123 H 
ATOM     15  C5  <0> d          -2.152  -0.858  -2.401  0.00  0.00    -0.052 A 
ATOM     16  H8  <0> d          -3.127  -0.402  -4.357  0.00  0.00     0.086 H 
ATOM     17  H7  <0> d          -1.687  -1.819  -2.565  0.00  0.00     0.087 H 
ENDBRANCH   7  10
ENDBRANCH   1   7
BRANCH   1  18
ATOM     18  C8  <0> d           0.731  -0.503   1.223  0.00  0.00     0.127 C 
ATOM     19  O2  <0> d           0.112  -0.804   2.215  0.00  0.00    -0.298 OA
BRANCH  18  20
ATOM     20  C9  <0> d           2.233  -0.627   1.206  0.00  0.00    -0.021 C 
ATOM     21  H10 <0> d           2.612  -0.312   0.234  0.00  0.00     0.037 H 
ATOM     22  H11 <0> d           2.658   0.006   1.984  0.00  0.00     0.037 H 
ATOM     23  H12 <0> d           2.514  -1.664   1.387  0.00  0.00     0.037 H 
ENDBRANCH  18  20
ENDBRANCH   1  18
TORSDOF 5
