REMARK  6 active torsions:
REMARK  status: ('A' for Active; 'I' for Inactive)
REMARK    1  A    between atoms: C1_1  and  C2_2 
REMARK    2  A    between atoms: C2_2  and  C3_4 
REMARK    3  A    between atoms: C2_2  and  C6_8 
REMARK    4  A    between atoms: C3_4  and  C4_5 
REMARK    5  A    between atoms: C4_5  and  C5_6 
REMARK    6  A    between atoms: C6_8  and  C7_9 
ROOT
ATOM      1  C2  <0> d           2.696   3.548  -0.005  0.00  0.00    -0.048 C 
ATOM      2  H1  <0> d           3.210   3.097  -0.854  0.00  0.00     0.040 H 
ENDROOT
BRANCH   1   3
ATOM      3  C1  <0> d           3.376   3.110   1.294  0.00  0.00    -0.072 C 
ATOM      4  H2  <0> d           2.863   3.561   2.143  0.00  0.00     0.028 H 
ATOM      5  H3  <0> d           3.334   2.024   1.378  0.00  0.00     0.028 H 
ATOM      6  H4  <0> d           4.417   3.433   1.286  0.00  0.00     0.028 H 
ENDBRANCH   1   3
BRANCH   1   7
ATOM      7  C3  <0> d           2.756   5.072  -0.123  0.00  0.00    -0.053 C 
ATOM      8  H5  <0> d           2.195   5.391  -1.001  0.00  0.00     0.034 H 
ATOM      9  H6  <0> d           2.321   5.523   0.769  0.00  0.00     0.034 H 
BRANCH   7  10
ATOM     10  C4  <0> d           4.214   5.516  -0.260  0.00  0.00     0.016 C 
ATOM     11  H7  <0> d           4.774   5.198   0.619  0.00  0.00     0.049 H 
ATOM     12  H8  <0> d           4.649   5.066  -1.152  0.00  0.00     0.049 H 
BRANCH  10  13
ATOM     13  C5  <0> d           4.272   7.018  -0.376  0.00  0.00     0.172 C 
ATOM     14  O1  <0> d           3.253   7.666  -0.352  0.00  0.00    -0.648 OA
ATOM     15  O3  <0> d           5.457   7.635  -0.506  0.00  0.00    -0.648 OA
ENDBRANCH  10  13
ENDBRANCH   7  10
ENDBRANCH   1   7
BRANCH   1  16
ATOM     16  C6  <0> d           1.235   3.094   0.007  0.00  0.00     0.019 C 
ATOM     17  H9  <0> d           0.727   3.482  -0.876  0.00  0.00     0.049 H 
ATOM     18  H10 <0> d           0.744   3.473   0.904  0.00  0.00     0.049 H 
BRANCH  16  19
ATOM     19  C7  <0> d           1.177   1.588  -0.001  0.00  0.00     0.172 C 
ATOM     20  O2  <0> d           2.199   0.944  -0.014  0.00  0.00    -0.648 OA
ATOM     21  O4  <0> d          -0.011   0.963   0.007  0.00  0.00    -0.648 OA
ENDBRANCH  16  19
ENDBRANCH   1  16
TORSDOF 6
