REMARK  0 active torsions:
REMARK  status: ('A' for Active; 'I' for Inactive)
ROOT
ATOM      1  C1  <0> d          -0.016   1.317   0.009  0.00  0.00     0.019 A 
ATOM      2  C2  <0> d           1.172   2.026   0.002  0.00  0.00     0.021 A 
ATOM      3  N1  <0> d           2.326   1.382  -0.013  0.00  0.00    -0.246 NA
ATOM      4  C3  <0> d           2.345   0.060  -0.021  0.00  0.00     0.143 A 
ATOM      5  C4  <0> d           1.155  -0.649  -0.013  0.00  0.00     0.041 A 
ATOM      6  N2  <0> d           0.002  -0.004   0.002  0.00  0.00    -0.268 NA
ATOM      7 Cl1  <0> d           3.860  -0.787  -0.041  0.00  0.00    -0.061 Cl
ATOM      8  H1  <0> d          -0.958   1.844   0.026  0.00  0.00     0.117 H 
ATOM      9  H2  <0> d           1.157   3.106   0.008  0.00  0.00     0.117 H 
ATOM     10  H3  <0> d           1.169  -1.729  -0.019  0.00  0.00     0.119 H 
ENDROOT
TORSDOF 0
