REMARK  4 active torsions:
REMARK  status: ('A' for Active; 'I' for Inactive)
REMARK    1  A    between atoms: C1_1  and  C2_2 
REMARK    2  A    between atoms: C2_2  and  C3_4 
REMARK    3  A    between atoms: C2_2  and  O2_7 
REMARK       I    between atoms: C3_4  and  N1_6 
REMARK    4  A    between atoms: O2_7  and  C4_8 
ROOT
ATOM      1  C2  <0> d          -2.482   0.853   0.018  0.00  0.00     0.111 C 
ATOM      2  H1  <0> d          -2.497   0.165  -0.827  0.00  0.00     0.097 H 
ENDROOT
BRANCH   1   3
ATOM      3  C1  <0> d          -2.602   0.061   1.322  0.00  0.00    -0.044 C 
ATOM      4  H2  <0> d          -2.587   0.749   2.168  0.00  0.00     0.031 H 
ATOM      5  H3  <0> d          -3.538  -0.497   1.323  0.00  0.00     0.031 H 
ATOM      6  H4  <0> d          -1.766  -0.633   1.404  0.00  0.00     0.031 H 
ENDBRANCH   1   3
BRANCH   1   7
ATOM      7  C3  <0> d          -1.187   1.624   0.017  0.00  0.00     0.244 C 
ATOM      8  O1  <0> d          -1.204   2.837   0.023  0.00  0.00    -0.271 OA
ATOM      9  N1  <0> d          -0.011   0.966   0.007  0.00  0.00    -0.368 N 
ATOM     10  H5  <0> d           0.002  -0.004   0.002  0.00  0.00     0.159 HD
ATOM     11  H6  <0> d           0.822   1.462   0.002  0.00  0.00     0.159 HD
ENDBRANCH   1   7
BRANCH   1  12
ATOM     12  O2  <0> d          -3.579   1.763  -0.089  0.00  0.00    -0.382 OA
BRANCH  12  13
ATOM     13  C4  <0> d          -4.722   1.219  -0.751  0.00  0.00     0.005 C 
ATOM     14  H7  <0> d          -4.449   0.924  -1.765  0.00  0.00     0.066 H 
ATOM     15  H8  <0> d          -5.080   0.348  -0.203  0.00  0.00     0.066 H 
ATOM     16  H9  <0> d          -5.510   1.971  -0.792  0.00  0.00     0.066 H 
ENDBRANCH  12  13
ENDBRANCH   1  12
TORSDOF 4
