REMARK  3 active torsions:
REMARK  status: ('A' for Active; 'I' for Inactive)
REMARK    1  A    between atoms: C2_2  and  C3_3 
REMARK    2  A    between atoms: C3_3  and  O1_4 
REMARK    3  A    between atoms: O1_4  and  C4_5 
ROOT
ATOM      1  C1  <0> d           0.866   4.637   0.019  0.00  0.00    -0.152 C 
ATOM      2  C2  <0> d           1.035   3.475   0.011  0.00  0.00    -0.091 C 
ATOM      3  H1  <0> d           0.707   5.726   0.026  0.00  0.00     0.166 H 
ENDROOT
BRANCH   2   4
ATOM      4  C3  <0> d           1.248   2.019   0.001  0.00  0.00     0.080 C 
ATOM      5  H2  <0> d           1.805   1.736  -0.904  0.00  0.00     0.094 H 
ATOM      6  H3  <0> d           1.823   1.726   0.892  0.00  0.00     0.094 H 
BRANCH   4   7
ATOM      7  O1  <0> d          -0.016   1.353   0.009  0.00  0.00    -0.338 OA
BRANCH   7   8
ATOM      8  C4  <0> d           0.002  -0.004   0.002  0.00  0.00     0.090 A 
ATOM      9  C9  <0> d          -1.200  -0.725   0.010  0.00  0.00     0.077 A 
ATOM     10  C8  <0> d          -1.168  -2.121   0.002  0.00  0.00    -0.060 A 
ATOM     11  C10 <0> d          -2.454  -0.033   0.025  0.00  0.00     0.102 C 
ATOM     12  C7  <0> d           0.042  -2.781  -0.013  0.00  0.00    -0.081 A 
ATOM     13  H7  <0> d          -2.091  -2.683   0.007  0.00  0.00     0.086 H 
ATOM     14  C6  <0> d           1.228  -2.065  -0.021  0.00  0.00    -0.080 A 
ATOM     15  H6  <0> d           0.066  -3.860  -0.019  0.00  0.00     0.083 H 
ATOM     16  C5  <0> d           1.210  -0.684  -0.019  0.00  0.00    -0.049 A 
ATOM     17  H5  <0> d           2.171  -2.590  -0.033  0.00  0.00     0.083 H 
ATOM     18  H4  <0> d           2.139  -0.133  -0.029  0.00  0.00     0.087 H 
ATOM     19  N1  <0> d          -3.449   0.516   0.037  0.00  0.00    -0.191 NA
ENDBRANCH   7   8
ENDBRANCH   4   7
ENDBRANCH   2   4
TORSDOF 3
