REMARK  6 active torsions:
REMARK  status: ('A' for Active; 'I' for Inactive)
REMARK    1  A    between atoms: C1_1  and  C2_2 
REMARK    2  A    between atoms: C2_2  and  C3_3 
REMARK    3  A    between atoms: C2_2  and  C4_4 
REMARK       I    between atoms: C4_4  and  N1_6 
REMARK    4  A    between atoms: N1_6  and  C5_7 
REMARK    5  A    between atoms: C5_7  and  C6_9 
REMARK    6  A    between atoms: C5_7  and  C7_10 
ROOT
ATOM      1  C4  <0> d           1.147   1.655  -0.000  0.00  0.00     0.221 C 
ATOM      2  O1  <0> d           1.130   2.868   0.007  0.00  0.00    -0.273 OA
ATOM      3  N1  <0> d          -0.011   0.966   0.007  0.00  0.00    -0.347 N 
ATOM      4  H9  <0> d           0.002  -0.004   0.002  0.00  0.00     0.163 HD
ENDROOT
BRANCH   1   5
ATOM      5  C2  <0> d           2.462   0.920  -0.017  0.00  0.00     0.017 C 
ATOM      6  H5  <0> d           2.520   0.299  -0.910  0.00  0.00     0.053 H 
BRANCH   5   7
ATOM      7  C1  <0> d           3.611   1.930  -0.022  0.00  0.00    -0.065 C 
ATOM      8  H2  <0> d           3.554   2.551   0.872  0.00  0.00     0.028 H 
ATOM      9  H3  <0> d           4.562   1.398  -0.034  0.00  0.00     0.028 H 
ATOM     10  H4  <0> d           3.537   2.560  -0.908  0.00  0.00     0.028 H 
ENDBRANCH   5   7
BRANCH   5  11
ATOM     11  C3  <0> d           2.567   0.035   1.227  0.00  0.00    -0.065 C 
ATOM     12  H6  <0> d           3.518  -0.497   1.215  0.00  0.00     0.028 H 
ATOM     13  H7  <0> d           2.509   0.656   2.121  0.00  0.00     0.028 H 
ATOM     14  H8  <0> d           1.748  -0.685   1.231  0.00  0.00     0.028 H 
ENDBRANCH   5  11
ENDBRANCH   1   5
BRANCH   3  15
ATOM     15  C5  <0> d          -1.290   1.681   0.017  0.00  0.00     0.092 C 
ATOM     16  H1  <0> d          -1.198   2.596  -0.568  0.00  0.00     0.089 H 
BRANCH  15  17
ATOM     17  C6  <0> d          -1.667   2.032   1.458  0.00  0.00    -0.048 C 
ATOM     18  H10 <0> d          -0.893   2.665   1.892  0.00  0.00     0.030 H 
ATOM     19  H11 <0> d          -2.618   2.564   1.465  0.00  0.00     0.030 H 
ATOM     20  H12 <0> d          -1.758   1.117   2.043  0.00  0.00     0.030 H 
ENDBRANCH  15  17
BRANCH  15  21
ATOM     21  C7  <0> d          -2.360   0.806  -0.583  0.00  0.00     0.196 C 
ATOM     22  O2  <0> d          -2.083  -0.302  -0.978  0.00  0.00    -0.646 OA
ATOM     23  O3  <0> d          -3.620   1.256  -0.678  0.00  0.00    -0.646 OA
ENDBRANCH  15  21
ENDBRANCH   3  15
TORSDOF 6
