REMARK  4 active torsions:
REMARK  status: ('A' for Active; 'I' for Inactive)
REMARK    1  A    between atoms: C1_1  and  C2_2 
REMARK    2  A    between atoms: C2_2  and  O1_3 
REMARK    3  A    between atoms: O1_3  and  C3_4 
REMARK    4  A    between atoms: C3_4  and  C4_6 
ROOT
ATOM      1  C3  <0> d           0.002  -0.004   0.002  0.00  0.00     0.312 C 
ATOM      2  O2  <0> d           1.063  -0.597  -0.011  0.00  0.00    -0.258 OA
ENDROOT
BRANCH   1   3
ATOM      3  O1  <0> d          -0.016   1.344   0.009  0.00  0.00    -0.317 OA
BRANCH   3   4
ATOM      4  C2  <0> d           1.268   2.021   0.001  0.00  0.00     0.026 C 
ATOM      5  H4  <0> d           1.838   1.730   0.884  0.00  0.00     0.074 H 
ATOM      6  H5  <0> d           1.821   1.740  -0.896  0.00  0.00     0.074 H 
BRANCH   4   7
ATOM      7  C1  <0> d           1.047   3.534   0.011  0.00  0.00    -0.056 C 
ATOM      8  H1  <0> d           2.012   4.043   0.005  0.00  0.00     0.030 H 
ATOM      9  H2  <0> d           0.478   3.825  -0.872  0.00  0.00     0.030 H 
ATOM     10  H3  <0> d           0.495   3.815   0.908  0.00  0.00     0.030 H 
ENDBRANCH   4   7
ENDBRANCH   3   4
ENDBRANCH   1   3
BRANCH   1  11
ATOM     11  C4  <0> d          -1.262  -0.757   0.010  0.00  0.00     0.138 A 
ATOM     12  N1  <0> d          -2.440  -0.131   0.024  0.00  0.00    -0.247 NA
ATOM     13  C6  <0> d          -3.548  -0.825   0.031  0.00  0.00     0.040 A 
ATOM     14  S1  <0> d          -2.976  -2.462   0.017  0.00  0.00    -0.092 SA
ATOM     15  H7  <0> d          -4.567  -0.467   0.041  0.00  0.00     0.126 H 
ATOM     16  C5  <0> d          -1.273  -2.129  -0.003  0.00  0.00    -0.010 A 
ATOM     17  H6  <0> d          -0.442  -2.819  -0.019  0.00  0.00     0.099 H 
ENDBRANCH   1  11
TORSDOF 4
