REMARK  4 active torsions:
REMARK  status: ('A' for Active; 'I' for Inactive)
REMARK    1  A    between atoms: C1_1  and  O1_2 
REMARK    2  A    between atoms: O1_2  and  C2_3 
REMARK    3  A    between atoms: C5_6  and  O2_9 
REMARK    4  A    between atoms: O2_9  and  C8_10 
ROOT
ATOM      1  C2  <0> d          -0.729   1.579   1.267  0.00  0.00     0.038 C 
ATOM      2  C3  <0> d          -0.013   1.086   0.008  0.00  0.00    -0.039 C 
ATOM      3  C4  <0> d          -0.753   1.593  -1.232  0.00  0.00    -0.039 C 
ATOM      4  C5  <0> d          -0.773   3.123  -1.223  0.00  0.00     0.038 C 
ATOM      5  C6  <0> d          -1.490   3.616   0.036  0.00  0.00    -0.039 C 
ATOM      6  C7  <0> d          -0.750   3.109   1.275  0.00  0.00    -0.039 C 
ATOM      7  H4  <0> d          -1.751   1.202   1.275  0.00  0.00     0.083 H 
ATOM      8  H5  <0> d           0.002  -0.004   0.002  0.00  0.00     0.036 H 
ATOM      9  H6  <0> d           1.010   1.463   0.000  0.00  0.00     0.036 H 
ATOM     10  H7  <0> d          -0.242   1.241  -2.128  0.00  0.00     0.036 H 
ATOM     11  H8  <0> d          -1.775   1.215  -1.224  0.00  0.00     0.036 H 
ATOM     12  H9  <0> d          -1.301   3.484  -2.106  0.00  0.00     0.083 H 
ATOM     13  H10 <0> d          -1.504   4.706   0.042  0.00  0.00     0.036 H 
ATOM     14  H11 <0> d          -2.512   3.239   0.043  0.00  0.00     0.036 H 
ATOM     15  H12 <0> d           0.273   3.486   1.268  0.00  0.00     0.036 H 
ATOM     16  H13 <0> d          -1.260   3.461   2.172  0.00  0.00     0.036 H 
ENDROOT
BRANCH   1  17
ATOM     17  O1  <0> d          -0.038   1.106   2.425  0.00  0.00    -0.391 OA
BRANCH  17  18
ATOM     18  C1  <0> d          -0.881   0.894   3.559  0.00  0.00     0.004 C 
ATOM     19  H1  <0> d          -1.363   1.833   3.833  0.00  0.00     0.066 H 
ATOM     20  H2  <0> d          -1.641   0.153   3.313  0.00  0.00     0.066 H 
ATOM     21  H3  <0> d          -0.281   0.536   4.395  0.00  0.00     0.066 H 
ENDBRANCH  17  18
ENDBRANCH   1  17
BRANCH   4  22
ATOM     22  O2  <0> d           0.567   3.617  -1.233  0.00  0.00    -0.391 OA
BRANCH  22  23
ATOM     23  C8  <0> d           0.715   4.883  -1.881  0.00  0.00     0.004 C 
ATOM     24  H14 <0> d           0.395   4.799  -2.919  0.00  0.00     0.066 H 
ATOM     25  H15 <0> d           0.102   5.625  -1.371  0.00  0.00     0.066 H 
ATOM     26  H16 <0> d           1.761   5.188  -1.846  0.00  0.00     0.066 H 
ENDBRANCH  22  23
ENDBRANCH   4  22
TORSDOF 4
