REMARK  3 active torsions:
REMARK  status: ('A' for Active; 'I' for Inactive)
REMARK    1  A    between atoms: C1_1  and  C2_2 
REMARK    2  A    between atoms: C2_2  and  C3_3 
REMARK    3  A    between atoms: C5_6  and  C7_9 
ROOT
ATOM      1  C3  <0> d          -0.718   1.572   1.248  0.00  0.00     0.051 A 
ATOM      2  C4  <0> d          -1.137   0.665   2.206  0.00  0.00     0.026 A 
ATOM      3  N1  <0> d          -1.751   1.092   3.295  0.00  0.00    -0.262 NA
ATOM      4  C5  <0> d          -1.975   2.383   3.465  0.00  0.00     0.048 A 
ATOM      5  C6  <0> d          -1.561   3.289   2.505  0.00  0.00     0.026 A 
ATOM      6  N2  <0> d          -0.942   2.863   1.417  0.00  0.00    -0.262 NA
ATOM      7  H6  <0> d          -0.957  -0.390   2.066  0.00  0.00     0.117 H 
ATOM      8  H7  <0> d          -1.744   4.344   2.643  0.00  0.00     0.117 H 
ENDROOT
BRANCH   1   9
ATOM      9  C2  <0> d          -0.013   1.086   0.008  0.00  0.00    -0.027 C 
ATOM     10  H4  <0> d           0.002  -0.004   0.002  0.00  0.00     0.041 H 
ATOM     11  H5  <0> d           1.010   1.463   0.000  0.00  0.00     0.041 H 
BRANCH   9  12
ATOM     12  C1  <0> d          -0.753   1.593  -1.232  0.00  0.00    -0.071 C 
ATOM     13  H1  <0> d          -0.767   2.683  -1.226  0.00  0.00     0.028 H 
ATOM     14  H2  <0> d          -0.242   1.241  -2.128  0.00  0.00     0.028 H 
ATOM     15  H3  <0> d          -1.775   1.215  -1.224  0.00  0.00     0.028 H 
ENDBRANCH   9  12
ENDBRANCH   1   9
BRANCH   4  16
ATOM     16  C7  <0> d          -2.682   2.869   4.704  0.00  0.00    -0.034 C 
ATOM     17  H8  <0> d          -3.756   2.892   4.524  0.00  0.00     0.035 H 
ATOM     18  H9  <0> d          -2.466   2.195   5.533  0.00  0.00     0.035 H 
ATOM     19  H10 <0> d          -2.333   3.872   4.951  0.00  0.00     0.035 H 
ENDBRANCH   4  16
TORSDOF 3
