REMARK  4 active torsions:
REMARK  status: ('A' for Active; 'I' for Inactive)
REMARK    1  A    between atoms: C1_1  and  C2_2 
REMARK    2  A    between atoms: C2_2  and  C3_4 
REMARK    3  A    between atoms: C2_2  and  C7_10 
REMARK    4  A    between atoms: C3_4  and  N1_5 
ROOT
ATOM      1  C3  <0> d          -0.013   1.086   0.008  0.00  0.00     0.028 C 
ATOM      2  H5  <0> d           0.002  -0.004   0.002  0.00  0.00     0.068 H 
ATOM      3  H6  <0> d           1.010   1.463   0.000  0.00  0.00     0.068 H 
ENDROOT
BRANCH   1   4
ATOM      4  C2  <0> d          -0.729   1.579   1.267  0.00  0.00     0.044 C 
ATOM      5  H1  <0> d          -1.776   1.277   1.232  0.00  0.00     0.058 H 
BRANCH   4   6
ATOM      6  C1  <0> d          -0.641   3.105   1.339  0.00  0.00    -0.062 C 
ATOM      7  H2  <0> d           0.406   3.407   1.374  0.00  0.00     0.028 H 
ATOM      8  H3  <0> d          -1.115   3.538   0.458  0.00  0.00     0.028 H 
ATOM      9  H4  <0> d          -1.151   3.457   2.235  0.00  0.00     0.028 H 
ENDBRANCH   4   6
BRANCH   4  10
ATOM     10  C7  <0> d          -0.074   0.981   2.485  0.00  0.00     0.178 C 
ATOM     11  O1  <0> d           0.869   0.235   2.359  0.00  0.00    -0.648 OA
ATOM     12  O2  <0> d          -0.538   1.275   3.709  0.00  0.00    -0.648 OA
ENDBRANCH   4  10
ENDBRANCH   1   4
BRANCH   1  13
ATOM     13  N1  <0> d          -0.721   1.571  -1.179  0.00  0.00    -0.280 N 
ATOM     14  N2  <0> d          -2.079   1.378  -1.464  0.00  0.00    -0.185 NA
ATOM     15  C6  <0> d          -2.342   1.956  -2.609  0.00  0.00     0.023 A 
ATOM     16  C5  <0> d          -1.162   2.534  -3.088  0.00  0.00    -0.048 A 
ATOM     17  H9  <0> d          -3.304   1.981  -3.099  0.00  0.00     0.117 H 
ATOM     18  C4  <0> d          -0.183   2.288  -2.187  0.00  0.00    -0.000 A 
ATOM     19  H8  <0> d          -1.053   3.084  -4.011  0.00  0.00     0.087 H 
ATOM     20  H7  <0> d           0.847   2.606  -2.263  0.00  0.00     0.114 H 
ENDBRANCH   1  13
TORSDOF 4
