REMARK  4 active torsions:
REMARK  status: ('A' for Active; 'I' for Inactive)
REMARK    1  A    between atoms: C1_1  and  C2_2 
REMARK    2  A    between atoms: C5_7  and  C7_10 
REMARK    3  A    between atoms: C8_11  and  C9_12 
REMARK    4  A    between atoms: C8_11  and  C10_13 
ROOT
ATOM      1  C2  <0> d           0.300   2.331   1.685  0.00  0.00    -0.053 C 
ATOM      2  H1  <0> d           0.422   3.388   1.921  0.00  0.00     0.039 H 
ATOM      3  C3  <0> d          -1.165   2.048   1.335  0.00  0.00    -0.042 C 
ATOM      4  C4  <0> d          -1.340   0.548   1.081  0.00  0.00     0.021 C 
ATOM      5  O1  <0> d          -0.925  -0.181   2.238  0.00  0.00    -0.382 OA
ATOM      6  C5  <0> d           0.448   0.007   2.585  0.00  0.00     0.055 C 
ATOM      7  H2  <0> d           1.079  -0.297   1.750  0.00  0.00     0.089 H 
ATOM      8  C6  <0> d           0.695   1.485   2.899  0.00  0.00    -0.035 C 
ATOM      9  H6  <0> d          -1.803   2.354   2.164  0.00  0.00     0.036 H 
ATOM     10  H7  <0> d          -1.439   2.603   0.438  0.00  0.00     0.036 H 
ATOM     11  H8  <0> d          -0.733   0.251   0.227  0.00  0.00     0.074 H 
ATOM     12  H9  <0> d          -2.389   0.335   0.874  0.00  0.00     0.074 H 
ATOM     13  H10 <0> d           1.751   1.639   3.121  0.00  0.00     0.037 H 
ATOM     14  H11 <0> d           0.095   1.780   3.760  0.00  0.00     0.037 H 
ENDROOT
BRANCH   6  15
ATOM     15  C7  <0> d           0.779  -0.826   3.796  0.00  0.00    -0.074 C 
ATOM     16  C8  <0> d           1.621  -1.825   3.693  0.00  0.00    -0.089 C 
ATOM     17  H12 <0> d           0.323  -0.600   4.748  0.00  0.00     0.081 H 
BRANCH  16  18
ATOM     18  C9  <0> d           2.151  -2.228   2.341  0.00  0.00    -0.055 C 
ATOM     19  H13 <0> d           3.015  -1.613   2.092  0.00  0.00     0.033 H 
ATOM     20  H14 <0> d           2.446  -3.277   2.365  0.00  0.00     0.033 H 
ATOM     21  H15 <0> d           1.374  -2.086   1.590  0.00  0.00     0.033 H 
ENDBRANCH  16  18
BRANCH  16  22
ATOM     22  C10 <0> d           2.059  -2.570   4.928  0.00  0.00    -0.055 C 
ATOM     23  H16 <0> d           1.189  -3.009   5.416  0.00  0.00     0.033 H 
ATOM     24  H17 <0> d           2.755  -3.361   4.646  0.00  0.00     0.033 H 
ATOM     25  H18 <0> d           2.552  -1.881   5.613  0.00  0.00     0.033 H 
ENDBRANCH  16  22
ENDBRANCH   6  15
BRANCH   1  26
ATOM     26  C1  <0> d           1.190   1.965   0.495  0.00  0.00    -0.073 C 
ATOM     27  H3  <0> d           1.064   0.909   0.258  0.00  0.00     0.028 H 
ATOM     28  H4  <0> d           2.232   2.160   0.748  0.00  0.00     0.028 H 
ATOM     29  H5  <0> d           0.907   2.568  -0.368  0.00  0.00     0.028 H 
ENDBRANCH   1  26
TORSDOF 4
