REMARK  1 active torsions:
REMARK  status: ('A' for Active; 'I' for Inactive)
REMARK    1  A    between atoms: C1_1  and  C2_2 
ROOT
ATOM      1  C1  <0> d          -0.019   1.526   0.010  0.00  0.00    -0.003 C 
ATOM      2  H1  <0> d           1.004   1.903   0.003  0.00  0.00     0.037 H 
ATOM      3  H2  <0> d          -0.546   1.887  -0.873  0.00  0.00     0.037 H 
ATOM      4  H3  <0> d          -0.529   1.877   0.907  0.00  0.00     0.037 H 
ENDROOT
BRANCH   1   5
ATOM      5  C2  <0> d           0.002  -0.004   0.002  0.00  0.00     0.316 C 
ATOM      6  F1  <0> d           0.679  -0.468   1.135  0.00  0.00    -0.188 F 
ATOM      7  F2  <0> d          -1.310  -0.488   0.012  0.00  0.00    -0.188 F 
ATOM      8 Cl1  <0> d           0.846  -0.586  -1.481  0.00  0.00    -0.048 Cl
ENDBRANCH   1   5
TORSDOF 1
