REMARK  3 active torsions:
REMARK  status: ('A' for Active; 'I' for Inactive)
REMARK    1  A    between atoms: C1_1  and  C2_2 
REMARK    2  A    between atoms: C5_5  and  C8_9 
REMARK    3  A    between atoms: C7_7  and  N1_8 
REMARK       I    between atoms: C8_9  and  N2_11 
ROOT
ATOM      1  C2  <0> d           1.177   1.781   0.000  0.00  0.00    -0.036 A 
ATOM      2  C3  <0> d          -0.013   1.076   0.008  0.00  0.00    -0.074 A 
ATOM      3  C4  <0> d          -1.218   1.747   0.017  0.00  0.00    -0.067 A 
ATOM      4  C5  <0> d          -1.240   3.143   0.030  0.00  0.00     0.034 A 
ATOM      5  C6  <0> d          -0.041   3.854   0.022  0.00  0.00    -0.042 A 
ATOM      6  C7  <0> d           1.166   3.171   0.007  0.00  0.00     0.032 A 
ATOM      7  H4  <0> d           0.002  -0.004   0.002  0.00  0.00     0.084 H 
ATOM      8  H5  <0> d          -2.145   1.192   0.019  0.00  0.00     0.085 H 
ATOM      9  H6  <0> d          -0.051   4.934   0.027  0.00  0.00     0.088 H 
ENDROOT
BRANCH   4  10
ATOM     10  C8  <0> d          -2.530   3.865   0.046  0.00  0.00     0.249 C 
ATOM     11  O1  <0> d          -2.547   5.080   0.051  0.00  0.00    -0.268 OA
ATOM     12  N2  <0> d          -3.688   3.175   0.053  0.00  0.00    -0.366 N 
ATOM     13  H9  <0> d          -3.675   2.205   0.049  0.00  0.00     0.159 HD
ATOM     14  H10 <0> d          -4.535   3.648   0.064  0.00  0.00     0.159 HD
ENDBRANCH   4  10
BRANCH   6  15
ATOM     15  N1  <0> d           2.370   3.879  -0.001  0.00  0.00    -0.399 N 
ATOM     16  H7  <0> d           3.214   3.400  -0.011  0.00  0.00     0.156 HD
ATOM     17  H8  <0> d           2.362   4.849   0.004  0.00  0.00     0.156 HD
ENDBRANCH   6  15
BRANCH   1  18
ATOM     18  C1  <0> d           2.489   1.040  -0.016  0.00  0.00    -0.049 C 
ATOM     19  H1  <0> d           2.796   0.867  -1.047  0.00  0.00     0.033 H 
ATOM     20  H2  <0> d           3.248   1.634   0.494  0.00  0.00     0.033 H 
ATOM     21  H3  <0> d           2.373   0.084   0.494  0.00  0.00     0.033 H 
ENDBRANCH   1  18
TORSDOF 3
