REMARK  3 active torsions:
REMARK  status: ('A' for Active; 'I' for Inactive)
REMARK    1  A    between atoms: C1_1  and  C2_2 
REMARK    2  A    between atoms: C3_3  and  S1_8 
REMARK    3  A    between atoms: S1_8  and  C6_10 
ROOT
ATOM      1  C2  <0> d           0.218  -0.018  -0.028  0.00  0.00     0.068 A 
ATOM      2  C3  <0> d          -0.099  -0.691  -1.195  0.00  0.00     0.146 A 
ATOM      3  N1  <0> d          -0.286  -1.999  -1.174  0.00  0.00    -0.248 NA
ATOM      4  C4  <0> d          -0.172  -2.664  -0.038  0.00  0.00     0.020 A 
ATOM      5  C5  <0> d           0.145  -1.991   1.129  0.00  0.00     0.019 A 
ATOM      6  N2  <0> d           0.337  -0.684   1.107  0.00  0.00    -0.262 NA
ATOM      7  H4  <0> d          -0.325  -3.733  -0.020  0.00  0.00     0.117 H 
ATOM      8  H5  <0> d           0.238  -2.535   2.058  0.00  0.00     0.117 H 
ENDROOT
BRANCH   2   9
ATOM      9  S1  <0> d          -0.252   0.196  -2.710  0.00  0.00     0.066 S 
ATOM     10  O1  <0> d           0.135  -0.746  -3.701  0.00  0.00    -0.252 OA
BRANCH   9  11
ATOM     11  C6  <0> d          -2.031   0.524  -2.848  0.00  0.00    -0.002 C 
ATOM     12  H6  <0> d          -2.359   1.113  -1.992  0.00  0.00     0.045 H 
ATOM     13  H7  <0> d          -2.228   1.077  -3.767  0.00  0.00     0.045 H 
ATOM     14  H8  <0> d          -2.574  -0.421  -2.869  0.00  0.00     0.045 H 
ENDBRANCH   9  11
ENDBRANCH   2   9
BRANCH   1  15
ATOM     15  C1  <0> d           0.432   1.474  -0.052  0.00  0.00    -0.033 C 
ATOM     16  H1  <0> d           1.460   1.688  -0.343  0.00  0.00     0.035 H 
ATOM     17  H2  <0> d          -0.251   1.927  -0.771  0.00  0.00     0.035 H 
ATOM     18  H3  <0> d           0.242   1.884   0.939  0.00  0.00     0.035 H 
ENDBRANCH   1  15
TORSDOF 3
