REMARK  1 active torsions:
REMARK  status: ('A' for Active; 'I' for Inactive)
REMARK    1  A    between atoms: C5_6  and  N2_8 
ROOT
ATOM      1  C1  <0> d           0.133  -2.371   0.426  0.00  0.00    -0.056 C 
ATOM      2  C2  <0> d           1.493  -1.800  -0.026  0.00  0.00    -0.023 C 
ATOM      3  C3  <0> d           1.326  -0.281  -0.013  0.00  0.00     0.050 A 
ATOM      4  C4  <0> d           0.002  -0.004   0.002  0.00  0.00     0.011 A 
ATOM      5  S1  <0> d          -0.022   1.774   0.012  0.00  0.00    -0.055 SA
ATOM      6  C5  <0> d           1.698   2.015  -0.003  0.00  0.00     0.165 A 
ATOM      7  N1  <0> d           2.147   0.781  -0.014  0.00  0.00    -0.228 NA
ATOM      8  C6  <0> d          -0.838  -1.245   0.006  0.00  0.00    -0.033 C 
ATOM      9  H1  <0> d           0.113  -2.522   1.505  0.00  0.00     0.034 H 
ATOM     10  H2  <0> d          -0.094  -3.298  -0.100  0.00  0.00     0.034 H 
ATOM     11  H3  <0> d           2.276  -2.099   0.670  0.00  0.00     0.042 H 
ATOM     12  H4  <0> d           1.731  -2.146  -1.032  0.00  0.00     0.042 H 
ATOM     13  H7  <0> d          -1.648  -1.153   0.730  0.00  0.00     0.041 H 
ATOM     14  H8  <0> d          -1.238  -1.436  -0.989  0.00  0.00     0.041 H 
ENDROOT
BRANCH   6  15
ATOM     15  N2  <0> d           2.411   3.203  -0.004  0.00  0.00    -0.378 N 
ATOM     16  H5  <0> d           1.941   4.051   0.005  0.00  0.00     0.158 HD
ATOM     17  H6  <0> d           3.381   3.186  -0.013  0.00  0.00     0.158 HD
ENDBRANCH   6  15
TORSDOF 1
