REMARK  1 active torsions:
REMARK  status: ('A' for Active; 'I' for Inactive)
REMARK    1  A    between atoms: C2_2  and  N3_12 
ROOT
ATOM      1  C1  <0> d          -1.674   4.254   0.041  0.00  0.00    -0.029 A 
ATOM      2  C2  <0> d          -3.025   3.953   0.051  0.00  0.00     0.030 A 
ATOM      3  C3  <0> d          -3.453   2.625   0.048  0.00  0.00    -0.019 A 
ATOM      4  C4  <0> d          -2.548   1.603   0.034  0.00  0.00     0.132 A 
ATOM      5  C5  <0> d          -1.174   1.886   0.017  0.00  0.00     0.050 A 
ATOM      6  C6  <0> d          -0.738   3.224   0.026  0.00  0.00     0.067 A 
ATOM      7  N1  <0> d           0.633   3.190   0.013  0.00  0.00    -0.278 N 
ATOM      8  H1  <0> d           1.240   3.985   0.012  0.00  0.00     0.189 HD
ATOM      9  N2  <0> d           1.034   1.849   0.002  0.00  0.00    -0.186 NA
ATOM     10  C7  <0> d          -0.013   1.076   0.008  0.00  0.00     0.037 A 
ATOM     11  F1  <0> d          -2.975   0.321   0.031  0.00  0.00    -0.205 F 
ATOM     12  H2  <0> d          -1.348   5.283   0.043  0.00  0.00     0.090 H 
ATOM     13  H3  <0> d          -4.510   2.404   0.056  0.00  0.00     0.091 H 
ATOM     14  H4  <0> d           0.002  -0.004   0.002  0.00  0.00     0.118 H 
ENDROOT
BRANCH   2  15
ATOM     15  N3  <0> d          -3.965   4.985   0.066  0.00  0.00    -0.399 N 
ATOM     16  H5  <0> d          -3.671   5.909   0.068  0.00  0.00     0.156 HD
ATOM     17  H6  <0> d          -4.913   4.777   0.073  0.00  0.00     0.156 HD
ENDBRANCH   2  15
TORSDOF 1
