REMARK  1 active torsions:
REMARK  status: ('A' for Active; 'I' for Inactive)
REMARK    1  A    between atoms: C3_4  and  N2_6 
ROOT
ATOM      1  C1  <0> d           2.049   0.710  -0.014  0.00  0.00     0.028 A 
ATOM      2  C2  <0> d           1.294  -0.398  -0.012  0.00  0.00     0.039 A 
ATOM      3  O1  <0> d           0.002  -0.004   0.002  0.00  0.00    -0.289 OA
ATOM      4  C3  <0> d          -0.016   1.338   0.009  0.00  0.00     0.243 A 
ATOM      5  N1  <0> d           1.220   1.772  -0.000  0.00  0.00    -0.219 NA
ATOM      6  H1  <0> d           3.128   0.745  -0.024  0.00  0.00     0.117 H 
ATOM      7  H2  <0> d           1.653  -1.417  -0.022  0.00  0.00     0.126 H 
ENDROOT
BRANCH   4   8
ATOM      8  N2  <0> d          -1.149   2.129   0.019  0.00  0.00    -0.363 N 
ATOM      9  H3  <0> d          -2.027   1.718   0.021  0.00  0.00     0.159 HD
ATOM     10  H4  <0> d          -1.065   3.095   0.024  0.00  0.00     0.159 HD
ENDBRANCH   4   8
TORSDOF 1
