REMARK  2 active torsions:
REMARK  status: ('A' for Active; 'I' for Inactive)
REMARK    1  A    between atoms: C1_1  and  C2_2 
REMARK    2  A    between atoms: C2_2  and  C10_12 
ROOT
ATOM      1  C2  <0> d          -1.273   3.687  -0.012  0.00  0.00    -0.021 C 
ATOM      2  C3  <0> d          -2.199   2.676   0.733  0.00  0.00    -0.043 C 
ATOM      3  H1  <0> d          -3.049   3.104   1.263  0.00  0.00     0.041 H 
ATOM      4  C4  <0> d          -1.229   1.786   1.575  0.00  0.00    -0.060 C 
ATOM      5  C5  <0> d          -0.446   0.969   0.521  0.00  0.00    -0.058 C 
ATOM      6  C6  <0> d          -1.043   1.416  -0.848  0.00  0.00    -0.032 C 
ATOM      7  H2  <0> d          -0.878   0.735  -1.683  0.00  0.00     0.046 H 
ATOM      8  C7  <0> d          -2.539   1.668  -0.446  0.00  0.00    -0.054 C 
ATOM      9  C8  <0> d          -0.530   2.850  -1.043  0.00  0.00    -0.077 C 
ATOM     10  C9  <0> d           0.358   3.265  -1.912  0.00  0.00    -0.118 C 
ATOM     11  H6  <0> d          -1.776   1.120   2.243  0.00  0.00     0.033 H 
ATOM     12  H7  <0> d          -0.551   2.423   2.143  0.00  0.00     0.033 H 
ATOM     13  H8  <0> d          -0.604  -0.099   0.674  0.00  0.00     0.034 H 
ATOM     14  H9  <0> d           0.617   1.207   0.569  0.00  0.00     0.034 H 
ATOM     15  H10 <0> d          -3.102   2.152  -1.244  0.00  0.00     0.034 H 
ATOM     16  H11 <0> d          -3.029   0.758  -0.100  0.00  0.00     0.034 H 
ATOM     17  H12 <0> d           0.815   2.563  -2.594  0.00  0.00     0.067 H 
ATOM     18  H13 <0> d           0.633   4.308  -1.946  0.00  0.00     0.067 H 
ENDROOT
BRANCH   1  19
ATOM     19  C1  <0> d          -0.286   4.325   0.967  0.00  0.00    -0.065 C 
ATOM     20  H3  <0> d           0.304   5.080   0.447  0.00  0.00     0.028 H 
ATOM     21  H4  <0> d          -0.836   4.793   1.784  0.00  0.00     0.028 H 
ATOM     22  H5  <0> d           0.377   3.558   1.367  0.00  0.00     0.028 H 
ENDBRANCH   1  19
BRANCH   1  23
ATOM     23  C10 <0> d          -2.111   4.764  -0.704  0.00  0.00    -0.065 C 
ATOM     24  H14 <0> d          -2.818   4.292  -1.387  0.00  0.00     0.028 H 
ATOM     25  H15 <0> d          -2.656   5.338   0.045  0.00  0.00     0.028 H 
ATOM     26  H16 <0> d          -1.454   5.430  -1.265  0.00  0.00     0.028 H 
ENDBRANCH   1  23
TORSDOF 2
