REMARK  7 active torsions:
REMARK  status: ('A' for Active; 'I' for Inactive)
REMARK    1  A    between atoms: C1_1  and  C2_2 
REMARK    2  A    between atoms: C2_2  and  C10_13 
REMARK    3  A    between atoms: C3_3  and  C4_4 
REMARK    4  A    between atoms: C5_6  and  C9_11 
REMARK    5  A    between atoms: C6_8  and  C7_9 
REMARK    6  A    between atoms: C6_8  and  C8_10 
REMARK    7  A    between atoms: C9_11  and  O1_12 
ROOT
ATOM      1  C4  <0> d          -0.979   0.237   2.745  0.00  0.00    -0.024 A 
ATOM      2  H1  <0> d          -1.284   1.209   3.132  0.00  0.00     0.048 H 
ATOM      3  C5  <0> d          -0.276  -0.718   3.712  0.00  0.00    -0.019 A 
ATOM      4  H2  <0> d          -0.118  -0.374   4.734  0.00  0.00     0.045 H 
ATOM      5  C6  <0> d           0.521  -0.027   2.602  0.00  0.00    -0.034 A 
ENDROOT
BRANCH   1   6
ATOM      6  C3  <0> d          -1.894  -0.368   1.712  0.00  0.00    -0.096 C 
ATOM      7  C2  <0> d          -2.562   0.408   0.894  0.00  0.00    -0.091 C 
ATOM      8  H6  <0> d          -1.998  -1.441   1.645  0.00  0.00     0.077 H 
BRANCH   7   9
ATOM      9  C1  <0> d          -2.416   1.905   0.987  0.00  0.00    -0.055 C 
ATOM     10  H3  <0> d          -1.601   2.231   0.341  0.00  0.00     0.033 H 
ATOM     11  H4  <0> d          -3.344   2.381   0.671  0.00  0.00     0.033 H 
ATOM     12  H5  <0> d          -2.196   2.185   2.018  0.00  0.00     0.033 H 
ENDBRANCH   7   9
BRANCH   7  13
ATOM     13  C10 <0> d          -3.477  -0.197  -0.140  0.00  0.00    -0.055 C 
ATOM     14  H16 <0> d          -2.918  -0.377  -1.058  0.00  0.00     0.033 H 
ATOM     15  H17 <0> d          -3.874  -1.140   0.235  0.00  0.00     0.033 H 
ATOM     16  H18 <0> d          -4.299   0.489  -0.343  0.00  0.00     0.033 H 
ENDBRANCH   7  13
ENDBRANCH   1   6
BRANCH   5  17
ATOM     17  C7  <0> d           1.478   1.094   3.013  0.00  0.00    -0.068 C 
ATOM     18  H7  <0> d           1.327   1.333   4.066  0.00  0.00     0.028 H 
ATOM     19  H8  <0> d           2.507   0.768   2.859  0.00  0.00     0.028 H 
ATOM     20  H9  <0> d           1.282   1.979   2.408  0.00  0.00     0.028 H 
ENDBRANCH   5  17
BRANCH   5  21
ATOM     21  C8  <0> d           0.978  -0.885   1.421  0.00  0.00    -0.068 C 
ATOM     22  H10 <0> d           0.679  -0.407   0.488  0.00  0.00     0.028 H 
ATOM     23  H11 <0> d           2.063  -0.989   1.445  0.00  0.00     0.028 H 
ATOM     24  H12 <0> d           0.517  -1.871   1.488  0.00  0.00     0.028 H 
ENDBRANCH   5  21
BRANCH   3  25
ATOM     25  C9  <0> d          -0.555  -2.214   3.555  0.00  0.00     0.021 C 
ATOM     26  H13 <0> d          -0.344  -2.518   2.530  0.00  0.00     0.074 H 
ATOM     27  H14 <0> d           0.081  -2.776   4.239  0.00  0.00     0.074 H 
BRANCH  25  28
ATOM     28  O1  <0> d          -1.927  -2.477   3.856  0.00  0.00    -0.400 OA
ATOM     29  H15 <0> d          -2.176  -3.408   3.777  0.00  0.00     0.209 HD
ENDBRANCH  25  28
ENDBRANCH   3  25
TORSDOF 7
