REMARK  5 active torsions:
REMARK  status: ('A' for Active; 'I' for Inactive)
REMARK    1  A    between atoms: C1_1  and  C2_2 
REMARK    2  A    between atoms: C2_2  and  C3_4 
REMARK    3  A    between atoms: C2_2  and  O2_7 
REMARK    4  A    between atoms: C3_4  and  O1_5 
REMARK    5  A    between atoms: O1_5  and  C4_6 
ROOT
ATOM      1  C2  <0> d          -0.729   1.579   1.267  0.00  0.00     0.052 C 
ATOM      2  H1  <0> d          -1.776   1.277   1.232  0.00  0.00     0.085 H 
ENDROOT
BRANCH   1   3
ATOM      3  C1  <0> d          -0.064   0.971   2.503  0.00  0.00    -0.051 C 
ATOM      4  H2  <0> d           0.983   1.274   2.539  0.00  0.00     0.031 H 
ATOM      5  H3  <0> d          -0.574   1.323   3.400  0.00  0.00     0.031 H 
ATOM      6  H4  <0> d          -0.126  -0.116   2.452  0.00  0.00     0.031 H 
ENDBRANCH   1   3
BRANCH   1   7
ATOM      7  C3  <0> d          -0.013   1.086   0.008  0.00  0.00     0.042 C 
ATOM      8  H5  <0> d           0.002  -0.004   0.002  0.00  0.00     0.078 H 
ATOM      9  H6  <0> d           1.010   1.463   0.000  0.00  0.00     0.078 H 
BRANCH   7  10
ATOM     10  O1  <0> d          -0.704   1.559  -1.150  0.00  0.00    -0.393 OA
BRANCH  10  11
ATOM     11  C4  <0> d          -0.114   1.152  -2.386  0.00  0.00     0.004 C 
ATOM     12  H7  <0> d          -0.697   1.552  -3.216  0.00  0.00     0.066 H 
ATOM     13  H8  <0> d           0.907   1.531  -2.443  0.00  0.00     0.066 H 
ATOM     14  H9  <0> d          -0.101   0.064  -2.442  0.00  0.00     0.066 H 
ENDBRANCH  10  11
ENDBRANCH   7  10
ENDBRANCH   1   7
BRANCH   1  15
ATOM     15  O2  <0> d          -0.647   3.004   1.334  0.00  0.00    -0.394 OA
ATOM     16  H10 <0> d           0.258   3.345   1.368  0.00  0.00     0.210 HD
ENDBRANCH   1  15
TORSDOF 5
