REMARK  2 active torsions:
REMARK  status: ('A' for Active; 'I' for Inactive)
REMARK    1  A    between atoms: C1_1  and  C2_2 
REMARK    2  A    between atoms: C6_6  and  C8_8 
ROOT
ATOM      1  C2  <0> d           1.178   1.781   0.000  0.00  0.00    -0.061 A 
ATOM      2  C3  <0> d          -0.013   1.076   0.008  0.00  0.00    -0.077 A 
ATOM      3  C4  <0> d          -1.221   1.748   0.017  0.00  0.00    -0.082 A 
ATOM      4  C5  <0> d          -1.247   3.128   0.031  0.00  0.00    -0.069 A 
ATOM      5  C6  <0> d          -0.050   3.844   0.023  0.00  0.00     0.016 A 
ATOM      6  C7  <0> d           1.166   3.161   0.008  0.00  0.00    -0.064 A 
ATOM      7  H4  <0> d           0.002  -0.004   0.002  0.00  0.00     0.084 H 
ATOM      8  H5  <0> d          -2.147   1.192   0.018  0.00  0.00     0.083 H 
ATOM      9  H6  <0> d          -2.191   3.652   0.043  0.00  0.00     0.085 H 
ATOM     10  H7  <0> d           2.095   3.710   0.002  0.00  0.00     0.085 H 
ENDROOT
BRANCH   5  11
ATOM     11  C8  <0> d          -0.070   5.324   0.032  0.00  0.00     0.206 A 
ATOM     12  N3  <0> d           0.978   6.121   0.032  0.00  0.00    -0.106 NA
ATOM     13  N2  <0> d           0.607   7.351   0.037  0.00  0.00    -0.021 NA
ATOM     14  N1  <0> d          -0.679   7.433   0.050  0.00  0.00    -0.021 NA
ATOM     15  N4  <0> d          -1.145   6.124   0.046  0.00  0.00    -0.106 NA
ENDBRANCH   5  11
BRANCH   1  16
ATOM     16  C1  <0> d           2.490   1.041  -0.017  0.00  0.00    -0.051 C 
ATOM     17  H1  <0> d           2.797   0.868  -1.048  0.00  0.00     0.033 H 
ATOM     18  H2  <0> d           3.249   1.634   0.493  0.00  0.00     0.033 H 
ATOM     19  H3  <0> d           2.374   0.084   0.493  0.00  0.00     0.033 H 
ENDBRANCH   1  16
TORSDOF 2
