REMARK  5 active torsions:
REMARK  status: ('A' for Active; 'I' for Inactive)
REMARK    1  A    between atoms: C1_1  and  C2_2 
REMARK    2  A    between atoms: C5_5  and  C9_9 
REMARK    3  A    between atoms: C6_6  and  C8_8 
REMARK    4  A    between atoms: C9_9  and  C10_11 
REMARK    5  A    between atoms: C9_9  and  O1_12 
ROOT
ATOM      1  C2  <0> d           0.018  -2.071  -1.207  0.00  0.00    -0.061 A 
ATOM      2  C3  <0> d           0.039  -2.768  -0.013  0.00  0.00    -0.077 A 
ATOM      3  C4  <0> d           0.041  -2.084   1.188  0.00  0.00    -0.073 A 
ATOM      4  C5  <0> d           0.023  -0.702   1.195  0.00  0.00    -0.024 A 
ATOM      5  C6  <0> d           0.002  -0.004   0.002  0.00  0.00    -0.053 A 
ATOM      6  C7  <0> d          -0.006  -0.689  -1.199  0.00  0.00    -0.071 A 
ATOM      7  H5  <0> d           0.054  -3.848  -0.019  0.00  0.00     0.084 H 
ATOM      8  H6  <0> d           0.058  -2.629   2.120  0.00  0.00     0.084 H 
ATOM      9  H7  <0> d          -0.026  -0.144  -2.131  0.00  0.00     0.085 H 
ENDROOT
BRANCH   4  10
ATOM     10  C9  <0> d           0.025   0.045   2.504  0.00  0.00     0.058 C 
ATOM     11  H1  <0> d           0.601   0.964   2.397  0.00  0.00     0.090 H 
BRANCH  10  12
ATOM     12  C10 <0> d          -1.413   0.387   2.899  0.00  0.00    -0.049 C 
ATOM     13  H11 <0> d          -1.989  -0.532   3.005  0.00  0.00     0.031 H 
ATOM     14  H12 <0> d          -1.411   0.927   3.845  0.00  0.00     0.031 H 
ATOM     15  H13 <0> d          -1.863   1.010   2.126  0.00  0.00     0.031 H 
ENDBRANCH  10  12
BRANCH  10  16
ATOM     16  O1  <0> d           0.615  -0.772   3.517  0.00  0.00    -0.391 OA
ATOM     17  H14 <0> d           0.154  -1.609   3.667  0.00  0.00     0.210 HD
ENDBRANCH  10  16
ENDBRANCH   4  10
BRANCH   5  18
ATOM     18  C8  <0> d          -0.018   1.503   0.010  0.00  0.00    -0.051 C 
ATOM     19  H8  <0> d           1.004   1.880   0.003  0.00  0.00     0.033 H 
ATOM     20  H9  <0> d          -0.545   1.864  -0.873  0.00  0.00     0.033 H 
ATOM     21  H10 <0> d          -0.529   1.854   0.907  0.00  0.00     0.033 H 
ENDBRANCH   5  18
BRANCH   1  22
ATOM     22  C1  <0> d           0.017  -2.817  -2.516  0.00  0.00    -0.051 C 
ATOM     23  H2  <0> d          -1.011  -3.011  -2.822  0.00  0.00     0.033 H 
ATOM     24  H3  <0> d           0.515  -2.217  -3.277  0.00  0.00     0.033 H 
ATOM     25  H4  <0> d           0.545  -3.763  -2.396  0.00  0.00     0.033 H 
ENDBRANCH   1  22
TORSDOF 5
