REMARK  4 active torsions:
REMARK  status: ('A' for Active; 'I' for Inactive)
REMARK    1  A    between atoms: C3_3  and  C5_7 
REMARK    2  A    between atoms: C5_7  and  O2_8 
REMARK    3  A    between atoms: O2_8  and  C6_9 
REMARK    4  A    between atoms: C6_9  and  C7_10 
ROOT
ATOM      1  C1  <0> d          -7.007   0.241   0.882  0.00  0.00    -0.043 C 
ATOM      2  C2  <0> d          -6.171   1.129  -0.079  0.00  0.00    -0.037 C 
ATOM      3  C3  <0> d          -4.767   0.496   0.027  0.00  0.00     0.059 C 
ATOM      4  H1  <0> d          -4.601  -0.180  -0.811  0.00  0.00     0.086 H 
ATOM      5  O1  <0> d          -4.714  -0.234   1.258  0.00  0.00    -0.384 OA
ATOM      6  C4  <0> d          -5.953  -0.089   1.969  0.00  0.00     0.020 C 
ATOM      7  H2  <0> d          -7.351  -0.664   0.381  0.00  0.00     0.036 H 
ATOM      8  H3  <0> d          -7.845   0.797   1.303  0.00  0.00     0.036 H 
ATOM      9  H4  <0> d          -6.157   2.164   0.264  0.00  0.00     0.036 H 
ATOM     10  H5  <0> d          -6.551   1.062  -1.098  0.00  0.00     0.036 H 
ATOM     11  H6  <0> d          -6.211  -1.019   2.476  0.00  0.00     0.074 H 
ATOM     12  H7  <0> d          -5.883   0.726   2.690  0.00  0.00     0.074 H 
ENDROOT
BRANCH   3  13
ATOM     13  C5  <0> d          -3.701   1.593   0.028  0.00  0.00     0.044 C 
ATOM     14  H8  <0> d          -3.812   2.207   0.922  0.00  0.00     0.078 H 
ATOM     15  H9  <0> d          -3.821   2.217  -0.858  0.00  0.00     0.078 H 
BRANCH  13  16
ATOM     16  O2  <0> d          -2.403   0.997   0.019  0.00  0.00    -0.378 OA
BRANCH  16  17
ATOM     17  C6  <0> d          -1.329   1.940   0.019  0.00  0.00     0.099 C 
ATOM     18  H10 <0> d          -1.391   2.561   0.913  0.00  0.00     0.091 H 
ATOM     19  H11 <0> d          -1.400   2.570  -0.867  0.00  0.00     0.091 H 
BRANCH  17  20
ATOM     20  C7  <0> d          -0.014   1.204   0.009  0.00  0.00     0.197 C 
ATOM     21  O3  <0> d           0.002  -0.004   0.002  0.00  0.00    -0.646 OA
ATOM     22  O4  <0> d           1.139   1.891   0.001  0.00  0.00    -0.646 OA
ENDBRANCH  17  20
ENDBRANCH  16  17
ENDBRANCH  13  16
ENDBRANCH   3  13
TORSDOF 4
