REMARK  2 active torsions:
REMARK  status: ('A' for Active; 'I' for Inactive)
REMARK    1  A    between atoms: C1_1  and  C2_2 
REMARK    2  A    between atoms: C4_4  and  C5_7 
ROOT
ATOM      1  C5  <0> d           0.039  -3.320  -1.631  0.00  0.00     0.061 C 
ATOM      2  C6  <0> d           1.431  -3.696  -1.930  0.00  0.00     0.065 C 
ATOM      3  N2  <0> d           2.505  -3.986  -2.160  0.00  0.00    -0.197 NA
ATOM      4  H5  <0> d          -0.461  -4.148  -1.129  0.00  0.00     0.065 H 
ATOM      5  H6  <0> d          -0.482  -3.090  -2.560  0.00  0.00     0.065 H 
ENDROOT
BRANCH   1   6
ATOM      6  C4  <0> d           0.027  -2.108  -0.735  0.00  0.00     0.093 A 
ATOM      7  C3  <0> d           0.008  -0.824  -1.141  0.00  0.00    -0.026 A 
ATOM      8  C2  <0> d           0.002  -0.004   0.002  0.00  0.00     0.060 A 
ATOM      9  H4  <0> d          -0.002  -0.483  -2.166  0.00  0.00     0.090 H 
ATOM     10  N1  <0> d           0.023  -0.775   1.052  0.00  0.00    -0.133 NA
ATOM     11  O1  <0> d           0.034  -2.119   0.606  0.00  0.00    -0.217 OA
BRANCH   8  12
ATOM     12  C1  <0> d          -0.018   1.503   0.010  0.00  0.00    -0.033 C 
ATOM     13  H1  <0> d           1.004   1.880   0.003  0.00  0.00     0.035 H 
ATOM     14  H2  <0> d          -0.545   1.864  -0.873  0.00  0.00     0.035 H 
ATOM     15  H3  <0> d          -0.529   1.854   0.907  0.00  0.00     0.035 H 
ENDBRANCH   8  12
ENDBRANCH   1   6
TORSDOF 2
