REMARK  4 active torsions:
REMARK  status: ('A' for Active; 'I' for Inactive)
REMARK    1  A    between atoms: C4_4  and  C7_7 
REMARK    2  A    between atoms: C8_8  and  C9_9 
REMARK    3  A    between atoms: C9_9  and  C10_10 
REMARK    4  A    between atoms: C10_10  and  O1_11 
ROOT
ATOM      1  C1  <0> d          -0.017   1.379   0.010  0.00  0.00    -0.083 A 
ATOM      2  C2  <0> d           1.168   2.093   0.002  0.00  0.00    -0.082 A 
ATOM      3  C3  <0> d           2.377   1.429  -0.013  0.00  0.00    -0.065 A 
ATOM      4  C4  <0> d           2.403   0.034  -0.021  0.00  0.00     0.017 A 
ATOM      5  C5  <0> d           1.204  -0.681  -0.014  0.00  0.00    -0.065 A 
ATOM      6  C6  <0> d           0.002  -0.004   0.002  0.00  0.00    -0.082 A 
ATOM      7  H1  <0> d          -0.961   1.904   0.017  0.00  0.00     0.083 H 
ATOM      8  H2  <0> d           1.147   3.173   0.008  0.00  0.00     0.083 H 
ATOM      9  H3  <0> d           3.302   1.987  -0.019  0.00  0.00     0.085 H 
ATOM     10  H4  <0> d           1.218  -1.760  -0.019  0.00  0.00     0.085 H 
ATOM     11  H5  <0> d          -0.926  -0.556   0.008  0.00  0.00     0.083 H 
ENDROOT
BRANCH   4  12
ATOM     12  C7  <0> d           3.655  -0.662  -0.038  0.00  0.00    -0.067 C 
ATOM     13  C8  <0> d           4.681  -1.233  -0.052  0.00  0.00    -0.099 C 
BRANCH  13  14
ATOM     14  C9  <0> d           5.967  -1.948  -0.069  0.00  0.00     0.011 C 
ATOM     15  H6  <0> d           6.044  -2.579   0.817  0.00  0.00     0.055 H 
ATOM     16  H7  <0> d           6.026  -2.568  -0.963  0.00  0.00     0.055 H 
BRANCH  14  17
ATOM     17  C10 <0> d           7.114  -0.935  -0.074  0.00  0.00     0.026 C 
ATOM     18  H8  <0> d           7.037  -0.304  -0.960  0.00  0.00     0.075 H 
ATOM     19  H9  <0> d           7.055  -0.315   0.820  0.00  0.00     0.075 H 
BRANCH  17  20
ATOM     20  O1  <0> d           8.363  -1.630  -0.091  0.00  0.00    -0.400 OA
ATOM     21  H10 <0> d           9.136  -1.049  -0.095  0.00  0.00     0.209 HD
ENDBRANCH  17  20
ENDBRANCH  14  17
ENDBRANCH  13  14
ENDBRANCH   4  12
TORSDOF 4
