REMARK  2 active torsions:
REMARK  status: ('A' for Active; 'I' for Inactive)
REMARK    1  A    between atoms: C1_1  and  N1_2 
REMARK    2  A    between atoms: C4_6  and  N3_8 
ROOT
ATOM      1  N1  <0> d           0.002  -0.004   0.002  0.00  0.00    -0.241 N 
ATOM      2  C2  <0> d          -1.101  -0.781   0.003  0.00  0.00     0.246 A 
ATOM      3  O1  <0> d          -2.259  -0.417   0.010  0.00  0.00    -0.271 OA
ATOM      4  C3  <0> d          -0.585  -2.207  -0.007  0.00  0.00     0.067 A 
ATOM      5  C4  <0> d           0.920  -2.042  -0.013  0.00  0.00     0.127 A 
ATOM      6  N2  <0> d           1.161  -0.774  -0.014  0.00  0.00    -0.157 NA
ATOM      7  H4  <0> d          -0.909  -2.738   0.888  0.00  0.00     0.059 H 
ATOM      8  H5  <0> d          -0.917  -2.729  -0.905  0.00  0.00     0.059 H 
ENDROOT
BRANCH   1   9
ATOM      9  C1  <0> d          -0.018   1.461   0.010  0.00  0.00     0.005 C 
ATOM     10  H1  <0> d           1.005   1.838   0.002  0.00  0.00     0.059 H 
ATOM     11  H2  <0> d          -0.545   1.822  -0.873  0.00  0.00     0.059 H 
ATOM     12  H3  <0> d          -0.528   1.812   0.907  0.00  0.00     0.059 H 
ENDBRANCH   1   9
BRANCH   5  13
ATOM     13  N3  <0> d           1.859  -3.057  -0.023  0.00  0.00    -0.386 N 
ATOM     14  H6  <0> d           1.571  -3.983  -0.027  0.00  0.00     0.157 HD
ATOM     15  H7  <0> d           2.804  -2.843  -0.027  0.00  0.00     0.157 HD
ENDBRANCH   5  13
TORSDOF 2
