REMARK  1 active torsions:
REMARK  status: ('A' for Active; 'I' for Inactive)
REMARK    1  A    between atoms: C3_3  and  C6_7 
ROOT
ATOM      1  C1  <0> d          -4.901   2.069   0.031  0.00  0.00    -0.065 A 
ATOM      2  C2  <0> d          -3.584   2.497   0.029  0.00  0.00    -0.068 A 
ATOM      3  C3  <0> d          -2.573   1.533   0.020  0.00  0.00     0.012 A 
ATOM      4  C4  <0> d          -2.928   0.185   0.007  0.00  0.00     0.014 A 
ATOM      5  N1  <0> d          -4.194  -0.175   0.014  0.00  0.00    -0.272 NA
ATOM      6  C5  <0> d          -5.170   0.713   0.024  0.00  0.00     0.002 A 
ATOM      7  H1  <0> d          -5.708   2.786   0.038  0.00  0.00     0.085 H 
ATOM      8  H2  <0> d          -3.345   3.550   0.035  0.00  0.00     0.085 H 
ATOM      9  H3  <0> d          -2.156  -0.571  -0.004  0.00  0.00     0.116 H 
ATOM     10  H4  <0> d          -6.196   0.374   0.025  0.00  0.00     0.114 H 
ENDROOT
BRANCH   3  11
ATOM     11  C6  <0> d          -1.145   1.937   0.017  0.00  0.00     0.098 A 
ATOM     12  N2  <0> d          -0.673   3.159   0.025  0.00  0.00    -0.128 NA
ATOM     13  O1  <0> d           0.536   3.165   0.014  0.00  0.00    -0.225 OA
ATOM     14  C8  <0> d           1.041   1.923   0.002  0.00  0.00     0.046 A 
ATOM     15  C7  <0> d          -0.013   1.076   0.008  0.00  0.00    -0.029 A 
ATOM     16  H6  <0> d           2.087   1.653  -0.009  0.00  0.00     0.126 H 
ATOM     17  H5  <0> d           0.002  -0.004   0.002  0.00  0.00     0.090 H 
ENDBRANCH   3  11
TORSDOF 1
