REMARK  3 active torsions:
REMARK  status: ('A' for Active; 'I' for Inactive)
REMARK    1  A    between atoms: C1_1  and  C2_2 
REMARK    2  A    between atoms: C3_3  and  C6_8 
REMARK    3  A    between atoms: C4_5  and  C5_7 
ROOT
ATOM      1  C2  <0> d          -0.718   1.572   1.248  0.00  0.00     0.074 A 
ATOM      2  C3  <0> d          -2.053   1.827   1.370  0.00  0.00     0.177 A 
ATOM      3  O1  <0> d          -2.255   2.239   2.643  0.00  0.00    -0.287 OA
ATOM      4  C4  <0> d          -1.072   2.236   3.264  0.00  0.00     0.142 A 
ATOM      5  N1  <0> d          -0.150   1.837   2.428  0.00  0.00    -0.231 NA
ENDROOT
BRANCH   1   6
ATOM      6  C1  <0> d          -0.013   1.086   0.008  0.00  0.00    -0.033 C 
ATOM      7  H1  <0> d           0.002  -0.004   0.002  0.00  0.00     0.035 H 
ATOM      8  H2  <0> d           1.010   1.463   0.000  0.00  0.00     0.035 H 
ATOM      9  H3  <0> d          -0.540   1.447  -0.875  0.00  0.00     0.035 H 
ENDBRANCH   1   6
BRANCH   2  10
ATOM     10  C6  <0> d          -3.070   1.682   0.325  0.00  0.00     0.236 C 
ATOM     11  O2  <0> d          -2.752   1.298  -0.784  0.00  0.00    -0.642 OA
ATOM     12  O3  <0> d          -4.359   1.974   0.594  0.00  0.00    -0.642 OA
ENDBRANCH   2  10
BRANCH   4  13
ATOM     13  C5  <0> d          -0.837   2.632   4.699  0.00  0.00    -0.015 C 
ATOM     14  H4  <0> d          -0.625   3.700   4.752  0.00  0.00     0.038 H 
ATOM     15  H5  <0> d          -1.727   2.409   5.287  0.00  0.00     0.038 H 
ATOM     16  H6  <0> d           0.011   2.073   5.096  0.00  0.00     0.038 H 
ENDBRANCH   4  13
TORSDOF 3
