REMARK  1 active torsions:
REMARK  status: ('A' for Active; 'I' for Inactive)
REMARK    1  A    between atoms: C2_4  and  C5_9 
REMARK       I    between atoms: C5_9  and  N4_11 
ROOT
ATOM      1  C1  <0> d          -0.748   3.465   0.028  0.00  0.00     0.066 A 
ATOM      2  N1  <0> d           0.595   3.550   0.015  0.00  0.00    -0.344 N 
ATOM      3  H1  <0> d           1.083   4.536   0.016  0.00  0.00     0.167 HD
ATOM      4  C2  <0> d           1.090   2.268   0.004  0.00  0.00     0.141 A 
ATOM      5  C3  <0> d          -0.017   1.428   0.010  0.00  0.00     0.170 A 
ATOM      6  N2  <0> d          -1.110   2.210   0.019  0.00  0.00    -0.230 NA
ATOM      7  C4  <0> d           0.002  -0.004   0.002  0.00  0.00     0.122 C 
ATOM      8  N3  <0> d           0.018  -1.140  -0.004  0.00  0.00    -0.190 NA
ATOM      9  H2  <0> d          -1.425   4.306   0.039  0.00  0.00     0.143 H 
ENDROOT
BRANCH   4  10
ATOM     10  C5  <0> d           2.504   1.866  -0.012  0.00  0.00     0.269 C 
ATOM     11  O1  <0> d           2.801   0.687  -0.022  0.00  0.00    -0.266 OA
ATOM     12  N4  <0> d           3.471   2.805  -0.016  0.00  0.00    -0.365 N 
ATOM     13  H3  <0> d           4.529   2.504  -0.028  0.00  0.00     0.159 HD
ATOM     14  H4  <0> d           3.202   3.872  -0.008  0.00  0.00     0.159 HD
ENDBRANCH   4  10
TORSDOF 1
