REMARK  2 active torsions:
REMARK  status: ('A' for Active; 'I' for Inactive)
REMARK    1  A    between atoms: C1_1  and  C2_2 
REMARK    2  A    between atoms: C3_4  and  C5_7 
ROOT
ATOM      1  C5  <0> d          -0.018   1.468   0.010  0.00  0.00     0.055 C 
ATOM      2  C6  <0> d           0.002  -0.004   0.002  0.00  0.00     0.065 C 
ATOM      3  N2  <0> d           0.018  -1.140  -0.004  0.00  0.00    -0.197 NA
ATOM      4  H5  <0> d          -0.545   1.829  -0.873  0.00  0.00     0.064 H 
ATOM      5  H6  <0> d          -0.528   1.819   0.907  0.00  0.00     0.064 H 
ENDROOT
BRANCH   1   6
ATOM      6  C3  <0> d           1.396   1.989  -0.001  0.00  0.00     0.055 A 
ATOM      7  N1  <0> d           2.260   1.613   0.919  0.00  0.00    -0.249 NA
ATOM      8  C2  <0> d           3.497   2.056   0.918  0.00  0.00     0.071 A 
ATOM      9  S1  <0> d           3.508   3.108  -0.464  0.00  0.00    -0.085 SA
ATOM     10  C4  <0> d           1.808   2.862  -0.955  0.00  0.00    -0.018 A 
ATOM     11  H4  <0> d           1.260   3.290  -1.781  0.00  0.00     0.098 H 
BRANCH   8  12
ATOM     12  C1  <0> d           4.617   1.737   1.875  0.00  0.00    -0.029 C 
ATOM     13  H1  <0> d           5.512   2.285   1.581  0.00  0.00     0.036 H 
ATOM     14  H2  <0> d           4.327   2.030   2.884  0.00  0.00     0.036 H 
ATOM     15  H3  <0> d           4.821   0.667   1.851  0.00  0.00     0.036 H 
ENDBRANCH   8  12
ENDBRANCH   1   6
TORSDOF 2
