REMARK  1 active torsions:
REMARK  status: ('A' for Active; 'I' for Inactive)
REMARK    1  A    between atoms: N1_3  and  C4_6 
ROOT
ATOM      1  C1  <0> d           5.560   1.221  -0.045  0.00  0.00     0.019 A 
ATOM      2  C2  <0> d           4.305   1.709  -0.035  0.00  0.00     0.020 A 
ATOM      3  N1  <0> d           3.459   0.629  -0.027  0.00  0.00    -0.146 N 
ATOM      4  C3  <0> d           4.236  -0.485  -0.041  0.00  0.00     0.087 A 
ATOM      5  N2  <0> d           5.489  -0.119  -0.051  0.00  0.00    -0.254 NA
ATOM      6  H2  <0> d           6.467   1.807  -0.051  0.00  0.00     0.117 H 
ATOM      7  H3  <0> d           4.019   2.750  -0.032  0.00  0.00     0.115 H 
ATOM      8  H4  <0> d           3.877  -1.504  -0.043  0.00  0.00     0.145 H 
ENDROOT
BRANCH   3   9
ATOM      9  C4  <0> d           2.058   0.669  -0.014  0.00  0.00     0.751 A 
ATOM     10  N5  <0> d           1.325   1.756  -0.001  0.00  0.00     0.020 NA
ATOM     11  N4  <0> d          -0.016   1.340   0.009  0.00  0.00    -0.255 N 
ATOM     12  C5  <0> d           0.002  -0.004   0.002  0.00  0.00     0.099 A 
ATOM     13  H1  <0> d          -0.976   1.877   0.021  0.00  0.00     0.190 HD
ATOM     14  N3  <0> d           1.250  -0.396  -0.012  0.00  0.00    -0.055 NA
ATOM     15  H5  <0> d          -0.864  -0.649   0.007  0.00  0.00     0.146 H 
ENDBRANCH   3   9
TORSDOF 1
