REMARK  7 active torsions:
REMARK  status: ('A' for Active; 'I' for Inactive)
REMARK    1  A    between atoms: C1_1  and  C2_2 
REMARK    2  A    between atoms: C2_2  and  C3_3 
REMARK    3  A    between atoms: C3_3  and  C4_4 
REMARK    4  A    between atoms: C4_4  and  O1_5 
REMARK    5  A    between atoms: O1_5  and  C5_6 
REMARK    6  A    between atoms: C5_6  and  C6_8 
REMARK    7  A    between atoms: C5_6  and  C7_9 
ROOT
ATOM      1  C4  <0> d          -1.413  -2.063   0.004  0.00  0.00     0.021 C 
ATOM      2  H9  <0> d          -0.902  -2.415  -0.892  0.00  0.00     0.074 H 
ATOM      3  H10 <0> d          -0.885  -2.425   0.887  0.00  0.00     0.074 H 
ENDROOT
BRANCH   1   4
ATOM      4  C3  <0> d          -1.433  -0.534   0.013  0.00  0.00    -0.045 C 
ATOM      5  H7  <0> d          -1.944  -0.182   0.910  0.00  0.00     0.036 H 
ATOM      6  H8  <0> d          -1.960  -0.173  -0.870  0.00  0.00     0.036 H 
BRANCH   4   7
ATOM      7  C2  <0> d           0.002  -0.004   0.002  0.00  0.00    -0.067 C 
ATOM      8  H5  <0> d           0.512  -0.356  -0.895  0.00  0.00     0.032 H 
ATOM      9  H6  <0> d           0.529  -0.365   0.885  0.00  0.00     0.032 H 
BRANCH   7  10
ATOM     10  C1  <0> d          -0.019   1.526   0.010  0.00  0.00    -0.076 C 
ATOM     11  H2  <0> d           1.004   1.903   0.003  0.00  0.00     0.027 H 
ATOM     12  H3  <0> d          -0.546   1.887  -0.873  0.00  0.00     0.027 H 
ATOM     13  H4  <0> d          -0.529   1.877   0.907  0.00  0.00     0.027 H 
ENDBRANCH   7  10
ENDBRANCH   4   7
ENDBRANCH   1   4
BRANCH   1  14
ATOM     14  O1  <0> d          -2.753  -2.558   0.015  0.00  0.00    -0.376 OA
BRANCH  14  15
ATOM     15  C5  <0> d          -2.847  -3.984   0.008  0.00  0.00     0.118 C 
ATOM     16  H1  <0> d          -1.987  -4.402  -0.516  0.00  0.00     0.099 H 
BRANCH  15  17
ATOM     17  C6  <0> d          -2.866  -4.501   1.448  0.00  0.00    -0.043 C 
ATOM     18  H11 <0> d          -3.726  -4.083   1.972  0.00  0.00     0.031 H 
ATOM     19  H12 <0> d          -2.938  -5.588   1.443  0.00  0.00     0.031 H 
ATOM     20  H13 <0> d          -1.950  -4.199   1.955  0.00  0.00     0.031 H 
ENDBRANCH  15  17
BRANCH  15  21
ATOM     21  C7  <0> d          -4.114  -4.401  -0.693  0.00  0.00     0.202 C 
ATOM     22  O2  <0> d          -4.342  -5.583  -0.889  0.00  0.00    -0.646 OA
ATOM     23  O3  <0> d          -4.912  -3.557  -1.064  0.00  0.00    -0.646 OA
ENDBRANCH  15  21
ENDBRANCH  14  15
ENDBRANCH   1  14
TORSDOF 7
