REMARK  1 active torsions:
REMARK  status: ('A' for Active; 'I' for Inactive)
REMARK    1  A    between atoms: C2_2  and  C3_3 
ROOT
ATOM      1  C1  <0> d          -0.016   1.306   0.009  0.00  0.00    -0.121 C 
ATOM      2  C2  <0> d           0.002  -0.004   0.002  0.00  0.00    -0.061 C 
ATOM      3  H1  <0> d           0.912   1.859   0.003  0.00  0.00     0.066 H 
ATOM      4  H2  <0> d          -0.958   1.833   0.017  0.00  0.00     0.066 H 
ATOM      5  H3  <0> d           0.945  -0.531  -0.010  0.00  0.00     0.082 H 
ENDROOT
BRANCH   2   6
ATOM      6  C3  <0> d          -1.293  -0.775   0.010  0.00  0.00     0.206 C 
ATOM      7 Cl1  <0> d          -2.679   0.378   0.030  0.00  0.00    -0.079 Cl
ATOM      8 Cl2  <0> d          -1.388  -1.805  -1.467  0.00  0.00    -0.079 Cl
ATOM      9 Cl3  <0> d          -1.360  -1.821   1.478  0.00  0.00    -0.079 Cl
ENDBRANCH   2   6
TORSDOF 1
