REMARK  1 active torsions:
REMARK  status: ('A' for Active; 'I' for Inactive)
REMARK    1  A    between atoms: C4_5  and  C5_8 
ROOT
ATOM      1  C1  <0> d          -0.018   1.466   0.010  0.00  0.00     0.132 C 
ATOM      2  C2  <0> d           1.420   1.990  -0.001  0.00  0.00     0.044 C 
ATOM      3  O1  <0> d           2.106   1.465  -1.141  0.00  0.00    -0.387 OA
ATOM      4  C3  <0> d           2.145   0.035  -1.180  0.00  0.00     0.057 C 
ATOM      5  C4  <0> d           0.714  -0.509  -1.181  0.00  0.00     0.244 C 
ATOM      6  H1  <0> d           0.199  -0.179  -2.084  0.00  0.00     0.106 H 
ATOM      7  N1  <0> d           0.002  -0.004   0.002  0.00  0.00     0.101 N 
ATOM      8  H2  <0> d          -0.527   1.818   0.907  0.00  0.00     0.082 H 
ATOM      9  H3  <0> d          -0.544   1.828  -0.873  0.00  0.00     0.082 H 
ATOM     10  H4  <0> d           1.410   3.079  -0.052  0.00  0.00     0.076 H 
ATOM     11  H5  <0> d           1.930   1.673   0.909  0.00  0.00     0.076 H 
ATOM     12  H6  <0> d           2.659  -0.290  -2.085  0.00  0.00     0.078 H 
ATOM     13  H7  <0> d           2.676  -0.339  -0.305  0.00  0.00     0.078 H 
ATOM     14  H8  <0> d           0.411  -0.365   0.851  0.00  0.00     0.316 HD
ENDROOT
BRANCH   5  15
ATOM     15  C5  <0> d           0.749  -2.038  -1.144  0.00  0.00     0.420 C 
ATOM     16  F1  <0> d           1.407  -2.461   0.016  0.00  0.00    -0.169 F 
ATOM     17  F2  <0> d          -0.559  -2.535  -1.145  0.00  0.00    -0.169 F 
ATOM     18  F3  <0> d           1.430  -2.517  -2.268  0.00  0.00    -0.169 F 
ENDBRANCH   5  15
TORSDOF 1
