REMARK  0 active torsions:
REMARK  status: ('A' for Active; 'I' for Inactive)
ROOT
ATOM      1  C1  <0> d          -0.019   1.558   0.011  0.00  0.00    -0.052 C 
ATOM      2  C2  <0> d           1.480   1.944  -0.002  0.00  0.00    -0.045 C 
ATOM      3  C3  <0> d           2.222   0.571  -0.030  0.00  0.00     0.013 C 
ATOM      4  H1  <0> d           3.265   0.597  -0.345  0.00  0.00     0.072 H 
ATOM      5  C4  <0> d           1.242  -0.267  -0.929  0.00  0.00    -0.035 C 
ATOM      6  C5  <0> d           0.002  -0.004   0.002  0.00  0.00     0.025 C 
ATOM      7  H2  <0> d          -0.930  -0.501  -0.268  0.00  0.00     0.054 H 
ATOM      8  C6  <0> d           0.627  -0.370   1.356  0.00  0.00     0.222 C 
ATOM      9  O1  <0> d           0.053  -0.874   2.298  0.00  0.00    -0.273 OA
ATOM     10  N1  <0> d           1.956  -0.018   1.313  0.00  0.00    -0.356 N 
ATOM     11  H3  <0> d          -0.503   1.929   0.914  0.00  0.00     0.034 H 
ATOM     12  H4  <0> d          -0.520   1.939  -0.879  0.00  0.00     0.034 H 
ATOM     13  H5  <0> d           1.717   2.526  -0.892  0.00  0.00     0.036 H 
ATOM     14  H6  <0> d           1.739   2.500   0.900  0.00  0.00     0.036 H 
ATOM     15  H7  <0> d           1.116   0.165  -1.922  0.00  0.00     0.037 H 
ATOM     16  H8  <0> d           1.515  -1.321  -0.971  0.00  0.00     0.037 H 
ATOM     17  H9  <0> d           2.610  -0.136   2.019  0.00  0.00     0.162 HD
ENDROOT
TORSDOF 0
