REMARK  2 active torsions:
REMARK  status: ('A' for Active; 'I' for Inactive)
REMARK    1  A    between atoms: C1_1  and  O1_2 
REMARK    2  A    between atoms: O1_2  and  C2_3 
ROOT
ATOM      1  C2  <0> d          -0.787   2.892   1.346  0.00  0.00     0.089 A 
ATOM      2  C3  <0> d          -0.254   3.751   0.397  0.00  0.00    -0.049 A 
ATOM      3  C4  <0> d          -0.367   5.118   0.561  0.00  0.00    -0.080 A 
ATOM      4  C5  <0> d          -1.003   5.631   1.677  0.00  0.00    -0.081 A 
ATOM      5  C6  <0> d          -1.531   4.778   2.628  0.00  0.00    -0.059 A 
ATOM      6  C7  <0> d          -1.425   3.409   2.466  0.00  0.00     0.067 A 
ATOM      7 Cl1  <0> d          -2.088   2.338   3.660  0.00  0.00    -0.081 Cl
ATOM      8  H4  <0> d           0.247   3.351  -0.473  0.00  0.00     0.087 H 
ATOM      9  H5  <0> d           0.045   5.786  -0.180  0.00  0.00     0.083 H 
ATOM     10  H6  <0> d          -1.086   6.700   1.805  0.00  0.00     0.083 H 
ATOM     11  H7  <0> d          -2.027   5.181   3.499  0.00  0.00     0.086 H 
ENDROOT
BRANCH   1  12
ATOM     12  O1  <0> d          -0.682   1.547   1.184  0.00  0.00    -0.354 OA
BRANCH  12  13
ATOM     13  C1  <0> d          -0.013   1.086   0.008  0.00  0.00     0.010 C 
ATOM     14  H1  <0> d           0.002  -0.004   0.002  0.00  0.00     0.066 H 
ATOM     15  H2  <0> d           1.010   1.463   0.000  0.00  0.00     0.066 H 
ATOM     16  H3  <0> d          -0.540   1.447  -0.875  0.00  0.00     0.066 H 
ENDBRANCH  12  13
ENDBRANCH   1  12
TORSDOF 2
