REMARK  6 active torsions:
REMARK  status: ('A' for Active; 'I' for Inactive)
REMARK    1  A    between atoms: C1_1  and  C2_2 
REMARK    2  A    between atoms: C2_2  and  O3_8 
REMARK    3  A    between atoms: C3_3  and  C4_4 
REMARK    4  A    between atoms: C4_4  and  O2_6 
REMARK    5  A    between atoms: O2_6  and  C5_7 
REMARK    6  A    between atoms: O3_8  and  C6_9 
ROOT
ATOM      1  C2  <0> d           1.381  -2.634   2.064  0.00  0.00     0.047 C 
ATOM      2  C3  <0> d           0.573  -2.045   1.164  0.00  0.00     0.017 C 
ATOM      3  H4  <0> d           0.047  -2.644   0.436  0.00  0.00     0.096 H 
ENDROOT
BRANCH   1   4
ATOM      4  C1  <0> d           2.014  -1.815   3.159  0.00  0.00    -0.032 C 
ATOM      5  H1  <0> d           1.234  -1.336   3.751  0.00  0.00     0.036 H 
ATOM      6  H2  <0> d           2.610  -2.464   3.800  0.00  0.00     0.036 H 
ATOM      7  H3  <0> d           2.655  -1.052   2.718  0.00  0.00     0.036 H 
ENDBRANCH   1   4
BRANCH   1   8
ATOM      8  O3  <0> d           1.624  -3.958   1.986  0.00  0.00    -0.360 OA
BRANCH   8   9
ATOM      9  C6  <0> d           0.981  -4.684   0.905  0.00  0.00     0.010 C 
ATOM     10  H8  <0> d           1.261  -5.736   0.957  0.00  0.00     0.066 H 
ATOM     11  H9  <0> d          -0.101  -4.590   0.998  0.00  0.00     0.066 H 
ATOM     12  H10 <0> d           1.301  -4.270  -0.051  0.00  0.00     0.066 H 
ENDBRANCH   8   9
ENDBRANCH   1   8
BRANCH   2  13
ATOM     13  C4  <0> d           0.412  -0.638   1.171  0.00  0.00     0.284 C 
ATOM     14  O1  <0> d           0.929   0.028   2.048  0.00  0.00    -0.260 OA
BRANCH  13  15
ATOM     15  O2  <0> d          -0.314  -0.037   0.206  0.00  0.00    -0.323 OA
BRANCH  15  16
ATOM     16  C5  <0> d          -0.434   1.385   0.275  0.00  0.00     0.013 C 
ATOM     17  H5  <0> d           0.557   1.837   0.221  0.00  0.00     0.067 H 
ATOM     18  H6  <0> d          -1.041   1.740  -0.558  0.00  0.00     0.067 H 
ATOM     19  H7  <0> d          -0.909   1.664   1.216  0.00  0.00     0.067 H 
ENDBRANCH  15  16
ENDBRANCH  13  15
ENDBRANCH   2  13
TORSDOF 6
