REMARK  1 active torsions:
REMARK  status: ('A' for Active; 'I' for Inactive)
REMARK    1  A    between atoms: C2_2  and  C5_11 
ROOT
ATOM      1  C1  <0> d          -0.018   1.466   0.010  0.00  0.00     0.015 A 
ATOM      2  C2  <0> d           1.168   2.128   0.002  0.00  0.00     0.118 A 
ATOM      3  N1  <0> d           2.345   1.408  -0.013  0.00  0.00    -0.303 N 
ATOM      4  H1  <0> d           3.192   1.881  -0.018  0.00  0.00     0.171 HD
ATOM      5  C3  <0> d           2.339   0.065  -0.019  0.00  0.00     0.327 A 
ATOM      6  O1  <0> d           3.398  -0.531  -0.032  0.00  0.00    -0.247 OA
ATOM      7  N2  <0> d           1.193  -0.638  -0.012  0.00  0.00    -0.275 N 
ATOM      8  H2  <0> d           1.222  -1.608  -0.017  0.00  0.00     0.173 HD
ATOM      9  C4  <0> d           0.002  -0.004   0.002  0.00  0.00     0.251 A 
ATOM     10  O2  <0> d          -1.037  -0.637   0.009  0.00  0.00    -0.268 OA
ATOM     11  H3  <0> d          -0.953   2.007   0.026  0.00  0.00     0.096 H 
ENDROOT
BRANCH   2  12
ATOM     12  C5  <0> d           1.198   3.610   0.009  0.00  0.00     0.227 C 
ATOM     13  O3  <0> d           0.152   4.242   0.022  0.00  0.00    -0.643 OA
ATOM     14  O4  <0> d           2.268   4.199   0.003  0.00  0.00    -0.643 OA
ENDBRANCH   2  12
TORSDOF 1
