REMARK  3 active torsions:
REMARK  status: ('A' for Active; 'I' for Inactive)
REMARK    1  A    between atoms: C1_1  and  O1_2 
REMARK    2  A    between atoms: O1_2  and  C2_3 
REMARK    3  A    between atoms: C7_8  and  C8_9 
REMARK       I    between atoms: C8_9  and  N1_11 
ROOT
ATOM      1  C2  <0> d          -0.150   1.183   2.377  0.00  0.00     0.083 A 
ATOM      2  C3  <0> d           0.990   0.393   2.421  0.00  0.00    -0.050 A 
ATOM      3  C4  <0> d           1.533   0.028   3.636  0.00  0.00    -0.080 A 
ATOM      4  C5  <0> d           0.940   0.437   4.820  0.00  0.00    -0.082 A 
ATOM      5  C6  <0> d          -0.195   1.217   4.796  0.00  0.00    -0.065 A 
ATOM      6  C7  <0> d          -0.752   1.598   3.572  0.00  0.00     0.065 A 
ATOM      7  H4  <0> d           1.455   0.067   1.502  0.00  0.00     0.087 H 
ATOM      8  H5  <0> d           2.423  -0.583   3.665  0.00  0.00     0.083 H 
ATOM      9  H6  <0> d           1.370   0.143   5.766  0.00  0.00     0.083 H 
ATOM     10  H7  <0> d          -0.654   1.533   5.721  0.00  0.00     0.085 H 
ENDROOT
BRANCH   1  11
ATOM     11  O1  <0> d          -0.682   1.547   1.184  0.00  0.00    -0.355 OA
BRANCH  11  12
ATOM     12  C1  <0> d          -0.013   1.086   0.008  0.00  0.00     0.010 C 
ATOM     13  H1  <0> d           0.002  -0.004   0.002  0.00  0.00     0.066 H 
ATOM     14  H2  <0> d           1.010   1.463   0.000  0.00  0.00     0.066 H 
ATOM     15  H3  <0> d          -0.540   1.447  -0.875  0.00  0.00     0.066 H 
ENDBRANCH  11  12
ENDBRANCH   1  11
BRANCH   6  16
ATOM     16  C8  <0> d          -1.969   2.433   3.539  0.00  0.00     0.252 C 
ATOM     17  O2  <0> d          -2.451   2.762   2.473  0.00  0.00    -0.268 OA
ATOM     18  N1  <0> d          -2.545   2.830   4.691  0.00  0.00    -0.366 N 
ATOM     19  H8  <0> d          -2.160   2.567   5.542  0.00  0.00     0.159 HD
ATOM     20  H9  <0> d          -3.345   3.379   4.669  0.00  0.00     0.159 HD
ENDBRANCH   6  16
TORSDOF 3
