REMARK  3 active torsions:
REMARK  status: ('A' for Active; 'I' for Inactive)
REMARK    1  A    between atoms: C1_1  and  C2_2 
REMARK    2  A    between atoms: C5_5  and  C8_9 
REMARK    3  A    between atoms: C8_9  and  O1_10 
ROOT
ATOM      1  C2  <0> d           2.397   0.027  -0.021  0.00  0.00    -0.059 A 
ATOM      2  C3  <0> d           1.208  -0.679  -0.013  0.00  0.00    -0.076 A 
ATOM      3  C4  <0> d           0.002  -0.004   0.002  0.00  0.00    -0.071 A 
ATOM      4  C5  <0> d          -0.017   1.378   0.010  0.00  0.00     0.004 A 
ATOM      5  C6  <0> d           1.173   2.086   0.002  0.00  0.00     0.125 A 
ATOM      6  C7  <0> d           2.381   1.408  -0.014  0.00  0.00    -0.039 A 
ATOM      7  F1  <0> d           1.156   3.437   0.009  0.00  0.00    -0.205 F 
ATOM      8  H4  <0> d           1.222  -1.759  -0.019  0.00  0.00     0.084 H 
ATOM      9  H5  <0> d          -0.926  -0.556   0.008  0.00  0.00     0.084 H 
ATOM     10  H6  <0> d           3.309   1.960  -0.020  0.00  0.00     0.089 H 
ENDROOT
BRANCH   4  11
ATOM     11  C8  <0> d          -1.332   2.114   0.020  0.00  0.00     0.043 C 
ATOM     12  H7  <0> d          -1.394   2.735   0.913  0.00  0.00     0.081 H 
ATOM     13  H8  <0> d          -1.402   2.745  -0.866  0.00  0.00     0.081 H 
BRANCH  11  14
ATOM     14  O1  <0> d          -2.405   1.171   0.020  0.00  0.00    -0.396 OA
ATOM     15  H9  <0> d          -3.284   1.575   0.026  0.00  0.00     0.209 HD
ENDBRANCH  11  14
ENDBRANCH   4  11
BRANCH   1  16
ATOM     16  C1  <0> d           3.711  -0.711  -0.038  0.00  0.00    -0.051 C 
ATOM     17  H1  <0> d           4.017  -0.883  -1.070  0.00  0.00     0.033 H 
ATOM     18  H2  <0> d           4.468  -0.116   0.471  0.00  0.00     0.033 H 
ATOM     19  H3  <0> d           3.597  -1.668   0.472  0.00  0.00     0.033 H 
ENDBRANCH   1  16
TORSDOF 3
