REMARK  1 active torsions:
REMARK  status: ('A' for Active; 'I' for Inactive)
REMARK    1  A    between atoms: C1_1  and  C2_2 
ROOT
ATOM      1  C2  <0> d           0.002  -0.004   0.002  0.00  0.00     0.032 A 
ATOM      2  C3  <0> d          -0.006  -0.681  -1.207  0.00  0.00    -0.059 A 
ATOM      3  C4  <0> d           0.018  -2.067  -1.210  0.00  0.00    -0.078 A 
ATOM      4  C5  <0> d           0.039  -2.731   0.005  0.00  0.00    -0.045 A 
ATOM      5  C6  <0> d           0.040  -1.986   1.184  0.00  0.00     0.137 A 
ATOM      6  N1  <0> d           0.022  -0.659   1.143  0.00  0.00    -0.243 NA
ATOM      7  C7  <0> d           0.061  -2.658   2.448  0.00  0.00     0.119 C 
ATOM      8  N2  <0> d           0.078  -3.191   3.452  0.00  0.00    -0.190 NA
ATOM      9  H4  <0> d          -0.026  -0.133  -2.137  0.00  0.00     0.086 H 
ATOM     10  H5  <0> d           0.017  -2.617  -2.140  0.00  0.00     0.083 H 
ATOM     11  H6  <0> d           0.054  -3.811   0.039  0.00  0.00     0.088 H 
ENDROOT
BRANCH   1  12
ATOM     12  C1  <0> d          -0.018   1.503   0.010  0.00  0.00    -0.035 C 
ATOM     13  H1  <0> d           1.004   1.880   0.003  0.00  0.00     0.035 H 
ATOM     14  H2  <0> d          -0.545   1.864  -0.873  0.00  0.00     0.035 H 
ATOM     15  H3  <0> d          -0.529   1.854   0.907  0.00  0.00     0.035 H 
ENDBRANCH   1  12
TORSDOF 1
