REMARK  1 active torsions:
REMARK  status: ('A' for Active; 'I' for Inactive)
REMARK    1  A    between atoms: C4_4  and  S1_8 
ROOT
ATOM      1  C1  <0> d          -0.017   1.377   0.010  0.00  0.00    -0.080 A 
ATOM      2  C2  <0> d           1.171   2.086   0.002  0.00  0.00    -0.081 A 
ATOM      3  C3  <0> d           2.378   1.413  -0.013  0.00  0.00    -0.058 A 
ATOM      4  C4  <0> d           2.399   0.030  -0.021  0.00  0.00     0.113 A 
ATOM      5  C5  <0> d           1.211  -0.679  -0.013  0.00  0.00     0.138 A 
ATOM      6  C6  <0> d           0.002  -0.004   0.002  0.00  0.00    -0.044 A 
ATOM      7  F1  <0> d           1.230  -2.030  -0.022  0.00  0.00    -0.204 F 
ATOM      8  H1  <0> d          -0.959   1.905   0.026  0.00  0.00     0.083 H 
ATOM      9  H2  <0> d           1.155   3.166   0.008  0.00  0.00     0.083 H 
ATOM     10  H3  <0> d           3.305   1.967  -0.019  0.00  0.00     0.086 H 
ATOM     11  H4  <0> d          -0.926  -0.557   0.008  0.00  0.00     0.088 H 
ENDROOT
BRANCH   4  12
ATOM     12  S1  <0> d           3.938  -0.827  -0.042  0.00  0.00     0.289 S 
ATOM     13  O1  <0> d           4.264  -1.009   1.382  0.00  0.00    -0.206 OA
ATOM     14  O2  <0> d           3.586  -2.180  -0.501  0.00  0.00    -0.206 OA
ENDBRANCH   4  12
TORSDOF 1
