REMARK  2 active torsions:
REMARK  status: ('A' for Active; 'I' for Inactive)
REMARK    1  A    between atoms: C1_1  and  C2_2 
REMARK    2  A    between atoms: C8_8  and  N3_12 
ROOT
ATOM      1  C2  <0> d           4.625  -0.153  -0.042  0.00  0.00     0.033 A 
ATOM      2  C3  <0> d           4.737   1.234  -0.035  0.00  0.00    -0.059 A 
ATOM      3  C4  <0> d           3.609   2.007  -0.021  0.00  0.00    -0.067 A 
ATOM      4  C5  <0> d           2.362   1.360  -0.013  0.00  0.00     0.012 A 
ATOM      5  C6  <0> d           1.157   2.091   0.002  0.00  0.00    -0.066 A 
ATOM      6  C7  <0> d          -0.017   1.398   0.010  0.00  0.00    -0.038 A 
ATOM      7  C8  <0> d           0.002  -0.004   0.002  0.00  0.00     0.123 A 
ATOM      8  N1  <0> d           1.133  -0.679  -0.012  0.00  0.00    -0.211 NA
ATOM      9  C9  <0> d           2.316  -0.055  -0.020  0.00  0.00     0.162 A 
ATOM     10  N2  <0> d           3.457  -0.752  -0.035  0.00  0.00    -0.233 NA
ATOM     11  H4  <0> d           5.712   1.699  -0.042  0.00  0.00     0.086 H 
ATOM     12  H5  <0> d           3.675   3.085  -0.016  0.00  0.00     0.085 H 
ATOM     13  H6  <0> d           1.163   3.171   0.008  0.00  0.00     0.085 H 
ATOM     14  H7  <0> d          -0.958   1.927   0.017  0.00  0.00     0.089 H 
ENDROOT
BRANCH   1  15
ATOM     15  C1  <0> d           5.878  -0.989  -0.057  0.00  0.00    -0.035 C 
ATOM     16  H1  <0> d           6.759  -0.330  -0.062  0.00  0.00     0.035 H 
ATOM     17  H2  <0> d           5.887  -1.620  -0.959  0.00  0.00     0.035 H 
ATOM     18  H3  <0> d           5.903  -1.629   0.837  0.00  0.00     0.035 H 
ENDBRANCH   1  15
BRANCH   7  19
ATOM     19  N3  <0> d          -1.198  -0.696   0.009  0.00  0.00    -0.384 N 
ATOM     20  H8  <0> d          -1.199  -1.796   0.003  0.00  0.00     0.157 HD
ATOM     21  H9  <0> d          -2.150  -0.146   0.021  0.00  0.00     0.157 HD
ENDBRANCH   7  19
TORSDOF 2
