REMARK  1 active torsions:
REMARK  status: ('A' for Active; 'I' for Inactive)
REMARK    1  A    between atoms: C6_6  and  N2_9 
ROOT
ATOM      1  C1  <0> d          -0.013   1.076   0.008  0.00  0.00    -0.064 A 
ATOM      2  C2  <0> d          -1.205   1.742   0.017  0.00  0.00    -0.051 A 
ATOM      3  C3  <0> d          -1.182   3.150   0.030  0.00  0.00     0.085 A 
ATOM      4  C4  <0> d           0.072   3.810   0.022  0.00  0.00     0.087 A 
ATOM      5  C5  <0> d           0.099   5.217   0.029  0.00  0.00    -0.026 A 
ATOM      6  C6  <0> d          -1.107   5.891   0.043  0.00  0.00     0.045 A 
ATOM      7  C7  <0> d          -2.307   5.166   0.050  0.00  0.00     0.028 A 
ATOM      8  N1  <0> d          -2.316   3.857   0.044  0.00  0.00    -0.257 NA
ATOM      9  N3  <0> d           1.203   3.100   0.007  0.00  0.00    -0.259 NA
ATOM     10  C8  <0> d           1.184   1.788   0.000  0.00  0.00     0.003 A 
ATOM     11  H1  <0> d           0.002  -0.004   0.002  0.00  0.00     0.085 H 
ATOM     12  H2  <0> d          -2.141   1.203   0.018  0.00  0.00     0.087 H 
ATOM     13  H3  <0> d           1.035   5.755   0.022  0.00  0.00     0.090 H 
ATOM     14  H4  <0> d          -3.246   5.700   0.062  0.00  0.00     0.118 H 
ATOM     15  H7  <0> d           2.119   1.248  -0.011  0.00  0.00     0.114 H 
ENDROOT
BRANCH   6  16
ATOM     16  N2  <0> d          -1.131   7.285   0.049  0.00  0.00    -0.398 N 
ATOM     17  H5  <0> d          -2.093   7.819   0.060  0.00  0.00     0.156 HD
ATOM     18  H6  <0> d          -0.188   7.851   0.044  0.00  0.00     0.156 HD
ENDBRANCH   6  16
TORSDOF 1
