REMARK  2 active torsions:
REMARK  status: ('A' for Active; 'I' for Inactive)
REMARK    1  A    between atoms: C1_1  and  C2_2 
REMARK    2  A    between atoms: C4_5  and  C5_7 
ROOT
ATOM      1  C5  <0> d           0.055  -3.299   1.539  0.00  0.00     0.060 C 
ATOM      2  C6  <0> d           1.449  -3.680   1.817  0.00  0.00     0.065 C 
ATOM      3  N2  <0> d           2.526  -3.974   2.031  0.00  0.00    -0.197 NA
ATOM      4  H5  <0> d          -0.458  -3.087   2.477  0.00  0.00     0.065 H 
ATOM      5  H6  <0> d          -0.450  -4.117   1.026  0.00  0.00     0.065 H 
ENDROOT
BRANCH   1   6
ATOM      6  C4  <0> d           0.034  -2.070   0.666  0.00  0.00     0.085 A 
ATOM      7  C3  <0> d           0.028  -2.045  -0.677  0.00  0.00     0.034 A 
ATOM      8  N1  <0> d           0.008  -0.757  -1.061  0.00  0.00    -0.239 NA
ATOM      9  H4  <0> d           0.037  -2.905  -1.330  0.00  0.00     0.118 H 
ATOM     10  C2  <0> d           0.002  -0.004   0.002  0.00  0.00     0.141 A 
ATOM     11  O1  <0> d           0.023  -0.790   1.087  0.00  0.00    -0.298 OA
BRANCH  10  12
ATOM     12  C1  <0> d          -0.018   1.503   0.010  0.00  0.00    -0.015 C 
ATOM     13  H1  <0> d           1.004   1.880   0.003  0.00  0.00     0.038 H 
ATOM     14  H2  <0> d          -0.545   1.864  -0.873  0.00  0.00     0.038 H 
ATOM     15  H3  <0> d          -0.529   1.854   0.907  0.00  0.00     0.038 H 
ENDBRANCH  10  12
ENDBRANCH   1   6
TORSDOF 2
