REMARK  3 active torsions:
REMARK  status: ('A' for Active; 'I' for Inactive)
REMARK    1  A    between atoms: C1_1  and  C2_2 
REMARK    2  A    between atoms: C2_2  and  O2_4 
REMARK    3  A    between atoms: O2_4  and  C3_5 
ROOT
ATOM      1  C3  <0> d          -2.393   1.052   0.019  0.00  0.00     0.048 C 
ATOM      2  C4  <0> d          -2.823   0.776  -1.423  0.00  0.00    -0.040 C 
ATOM      3  C5  <0> d          -4.095  -0.074  -1.421  0.00  0.00    -0.063 C 
ATOM      4  C6  <0> d          -5.210   0.677  -0.691  0.00  0.00    -0.065 C 
ATOM      5  C7  <0> d          -4.779   0.952   0.751  0.00  0.00    -0.063 C 
ATOM      6  C8  <0> d          -3.508   1.803   0.750  0.00  0.00    -0.040 C 
ATOM      7  H4  <0> d          -2.145   0.115   0.540  0.00  0.00     0.084 H 
ATOM      8  H5  <0> d          -3.020   1.730  -1.935  0.00  0.00     0.036 H 
ATOM      9  H6  <0> d          -2.022   0.236  -1.948  0.00  0.00     0.036 H 
ATOM     10  H7  <0> d          -4.405  -0.273  -2.458  0.00  0.00     0.033 H 
ATOM     11  H8  <0> d          -3.898  -1.028  -0.909  0.00  0.00     0.033 H 
ATOM     12  H9  <0> d          -5.407   1.630  -1.203  0.00  0.00     0.033 H 
ATOM     13  H10 <0> d          -6.125   0.065  -0.690  0.00  0.00     0.033 H 
ATOM     14  H11 <0> d          -5.581   1.492   1.276  0.00  0.00     0.033 H 
ATOM     15  H12 <0> d          -4.582  -0.001   1.264  0.00  0.00     0.033 H 
ATOM     16  H13 <0> d          -3.198   2.001   1.786  0.00  0.00     0.036 H 
ATOM     17  H14 <0> d          -3.705   2.756   0.237  0.00  0.00     0.036 H 
ENDROOT
BRANCH   1  18
ATOM     18  O2  <0> d          -1.186   1.859   0.018  0.00  0.00    -0.316 OA
BRANCH  18  19
ATOM     19  C2  <0> d          -0.014   1.204   0.009  0.00  0.00     0.255 C 
ATOM     20  O1  <0> d           0.002  -0.004   0.002  0.00  0.00    -0.266 OA
BRANCH  19  21
ATOM     21  C1  <0> d           1.280   1.975   0.000  0.00  0.00     0.004 C 
ATOM     22  H1  <0> d           1.065   3.054   0.008  0.00  0.00     0.041 H 
ATOM     23  H2  <0> d           1.852   1.722  -0.905  0.00  0.00     0.041 H 
ATOM     24  H3  <0> d           1.869   1.712   0.891  0.00  0.00     0.041 H 
ENDBRANCH  19  21
ENDBRANCH  18  19
ENDBRANCH   1  18
TORSDOF 3
