REMARK  5 active torsions:
REMARK  status: ('A' for Active; 'I' for Inactive)
REMARK    1  A    between atoms: C1_1  and  O1_2 
REMARK    2  A    between atoms: O1_2  and  C2_3 
REMARK    3  A    between atoms: C4_6  and  O4_13 
REMARK    4  A    between atoms: C5_8  and  C6_11 
REMARK    5  A    between atoms: C6_11  and  O3_12 
ROOT
ATOM      1  C2  <0> d          -2.268   0.669   2.791  0.00  0.00     0.133 C 
ATOM      2  H1  <0> d          -2.406  -0.400   2.951  0.00  0.00     0.129 H 
ATOM      3  C3  <0> d          -1.052   1.168   3.602  0.00  0.00     0.007 C 
ATOM      4  C4  <0> d           0.073   1.183   2.532  0.00  0.00     0.067 C 
ATOM      5  H2  <0> d           0.522   0.197   2.420  0.00  0.00     0.087 H 
ATOM      6  C5  <0> d          -0.729   1.579   1.267  0.00  0.00     0.086 C 
ATOM      7  H3  <0> d          -0.862   2.660   1.226  0.00  0.00     0.090 H 
ATOM      8  O2  <0> d          -1.999   0.923   1.407  0.00  0.00    -0.351 OA
ATOM      9  H7  <0> d          -0.812   0.474   4.407  0.00  0.00     0.044 H 
ATOM     10  H8  <0> d          -1.228   2.170   3.994  0.00  0.00     0.044 H 
ENDROOT
BRANCH   1  11
ATOM     11  O1  <0> d          -3.443   1.375   3.196  0.00  0.00    -0.366 OA
BRANCH  11  12
ATOM     12  C1  <0> d          -4.656   0.834   2.669  0.00  0.00     0.007 C 
ATOM     13  H4  <0> d          -4.623   0.862   1.580  0.00  0.00     0.066 H 
ATOM     14  H5  <0> d          -4.769  -0.197   3.003  0.00  0.00     0.066 H 
ATOM     15  H6  <0> d          -5.501   1.425   3.022  0.00  0.00     0.066 H 
ENDBRANCH  11  12
ENDBRANCH   1  11
BRANCH   6  16
ATOM     16  C6  <0> d          -0.013   1.086   0.008  0.00  0.00     0.043 C 
ATOM     17  H9  <0> d           0.002  -0.004   0.002  0.00  0.00     0.078 H 
ATOM     18  H10 <0> d           1.010   1.463   0.000  0.00  0.00     0.078 H 
BRANCH  16  19
ATOM     19  O3  <0> d          -0.704   1.559  -1.150  0.00  0.00    -0.398 OA
ATOM     20  H11 <0> d          -0.304   1.284  -1.986  0.00  0.00     0.209 HD
ENDBRANCH  16  19
ENDBRANCH   6  16
BRANCH   4  21
ATOM     21  O4  <0> d           1.065   2.165   2.841  0.00  0.00    -0.393 OA
ATOM     22  H12 <0> d           1.591   1.959   3.626  0.00  0.00     0.210 HD
ENDBRANCH   4  21
TORSDOF 5
