REMARK  2 active torsions:
REMARK  status: ('A' for Active; 'I' for Inactive)
REMARK    1  A    between atoms: C4_4  and  C7_7 
REMARK    2  A    between atoms: C9_9  and  O1_13 
ROOT
ATOM      1  C1  <0> d           0.002  -0.004   0.002  0.00  0.00    -0.083 A 
ATOM      2  C2  <0> d          -0.017   1.379   0.010  0.00  0.00    -0.082 A 
ATOM      3  C3  <0> d           1.167   2.088   0.002  0.00  0.00    -0.071 A 
ATOM      4  C4  <0> d           2.385   1.407  -0.013  0.00  0.00    -0.009 A 
ATOM      5  C5  <0> d           2.397   0.011  -0.021  0.00  0.00    -0.071 A 
ATOM      6  C6  <0> d           1.206  -0.686  -0.013  0.00  0.00    -0.082 A 
ATOM      7  H2  <0> d          -0.927  -0.554   0.008  0.00  0.00     0.083 H 
ATOM      8  H3  <0> d          -0.960   1.905   0.017  0.00  0.00     0.083 H 
ATOM      9  H4  <0> d           1.151   3.168   0.008  0.00  0.00     0.084 H 
ATOM     10  H5  <0> d           3.336  -0.522  -0.032  0.00  0.00     0.084 H 
ATOM     11  H6  <0> d           1.214  -1.766  -0.019  0.00  0.00     0.083 H 
ENDROOT
BRANCH   4  12
ATOM     12  C7  <0> d           3.657   2.160  -0.022  0.00  0.00     0.045 A 
ATOM     13  N1  <0> d           4.915   1.617  -0.037  0.00  0.00    -0.362 N 
ATOM     14  C10 <0> d           5.830   2.634  -0.042  0.00  0.00     0.009 A 
ATOM     15  H1  <0> d           5.123   0.669  -0.045  0.00  0.00     0.165 HD
ATOM     16  C9  <0> d           5.160   3.810  -0.028  0.00  0.00     0.083 A 
ATOM     17  H8  <0> d           6.904   2.518  -0.053  0.00  0.00     0.115 H 
ATOM     18  C8  <0> d           3.785   3.517  -0.021  0.00  0.00    -0.023 A 
ATOM     19  H7  <0> d           2.978   4.235  -0.014  0.00  0.00     0.091 H 
BRANCH  16  20
ATOM     20  O1  <0> d           5.718   5.053  -0.027  0.00  0.00    -0.359 OA
ATOM     21  H9  <0> d           5.870   5.417  -0.910  0.00  0.00     0.217 HD
ENDBRANCH  16  20
ENDBRANCH   4  12
TORSDOF 2
