REMARK  1 active torsions:
REMARK  status: ('A' for Active; 'I' for Inactive)
REMARK    1  A    between atoms: C3_3  and  N2_11 
ROOT
ATOM      1  C1  <0> d          -0.013   1.076   0.008  0.00  0.00    -0.070 A 
ATOM      2  C2  <0> d          -1.198   1.743   0.017  0.00  0.00    -0.057 A 
ATOM      3  C3  <0> d          -1.237   3.142   0.032  0.00  0.00     0.026 A 
ATOM      4  C4  <0> d          -0.073   3.880   0.024  0.00  0.00    -0.046 A 
ATOM      5  C5  <0> d           1.162   3.216   0.008  0.00  0.00    -0.006 A 
ATOM      6  C6  <0> d           1.191   1.796   0.000  0.00  0.00    -0.023 A 
ATOM      7  C7  <0> d           2.444   1.157  -0.015  0.00  0.00    -0.055 A 
ATOM      8  C8  <0> d           3.569   1.924  -0.022  0.00  0.00     0.003 A 
ATOM      9  N1  <0> d           3.514   3.249  -0.014  0.00  0.00    -0.272 NA
ATOM     10  C9  <0> d           2.382   3.913  -0.000  0.00  0.00     0.013 A 
ATOM     11  H1  <0> d           0.002  -0.004   0.002  0.00  0.00     0.084 H 
ATOM     12  H2  <0> d          -2.123   1.185   0.018  0.00  0.00     0.086 H 
ATOM     13  H3  <0> d          -0.111   4.959   0.029  0.00  0.00     0.088 H 
ATOM     14  H4  <0> d           2.512   0.080  -0.021  0.00  0.00     0.087 H 
ATOM     15  H5  <0> d           4.534   1.440  -0.034  0.00  0.00     0.114 H 
ATOM     16  H6  <0> d           2.388   4.993   0.006  0.00  0.00     0.116 H 
ENDROOT
BRANCH   3  17
ATOM     17  N2  <0> d          -2.470   3.798   0.047  0.00  0.00    -0.399 N 
ATOM     18  H7  <0> d          -2.507   4.897   0.058  0.00  0.00     0.156 HD
ATOM     19  H8  <0> d          -3.403   3.216   0.047  0.00  0.00     0.156 HD
ENDBRANCH   3  17
TORSDOF 1
