REMARK  1 active torsions:
REMARK  status: ('A' for Active; 'I' for Inactive)
REMARK    1  A    between atoms: C1_1  and  N1_2 
ROOT
ATOM      1  N1  <0> d          -1.186   1.881   0.018  0.00  0.00    -0.238 N 
ATOM      2  C2  <0> d          -0.015   1.216   0.009  0.00  0.00     0.263 A 
ATOM      3  O1  <0> d           0.002  -0.004   0.002  0.00  0.00    -0.267 OA
ATOM      4  C3  <0> d           1.194   1.946   0.001  0.00  0.00    -0.013 A 
ATOM      5  C4  <0> d           1.116   3.309   0.009  0.00  0.00    -0.037 A 
ATOM      6  C5  <0> d          -0.159   3.904   0.024  0.00  0.00     0.146 A 
ATOM      7  N2  <0> d          -1.233   3.164   0.029  0.00  0.00    -0.158 NA
ATOM      8 Cl1  <0> d          -0.303   5.634   0.034  0.00  0.00    -0.061 Cl
ATOM      9  H4  <0> d           2.150   1.442  -0.011  0.00  0.00     0.092 H 
ATOM     10  H5  <0> d           2.009   3.916   0.004  0.00  0.00     0.088 H 
ENDROOT
BRANCH   1  11
ATOM     11  C1  <0> d          -2.438   1.120   0.020  0.00  0.00     0.006 C 
ATOM     12  H1  <0> d          -2.744   0.926   1.048  0.00  0.00     0.059 H 
ATOM     13  H2  <0> d          -3.213   1.695  -0.487  0.00  0.00     0.059 H 
ATOM     14  H3  <0> d          -2.289   0.174  -0.500  0.00  0.00     0.059 H 
ENDBRANCH   1  11
TORSDOF 1
