REMARK  1 active torsions:
REMARK  status: ('A' for Active; 'I' for Inactive)
REMARK    1  A    between atoms: C6_6  and  O1_7 
ROOT
ATOM      1  C1  <0> d          -0.017   1.382   0.010  0.00  0.00    -0.048 A 
ATOM      2  C2  <0> d           1.170   2.092   0.002  0.00  0.00    -0.045 A 
ATOM      3  C3  <0> d           2.381   1.419  -0.013  0.00  0.00     0.105 A 
ATOM      4  C4  <0> d           2.402   0.027  -0.021  0.00  0.00     0.107 A 
ATOM      5  C5  <0> d           1.212  -0.682  -0.012  0.00  0.00    -0.016 A 
ATOM      6  C6  <0> d           0.002  -0.004   0.002  0.00  0.00     0.068 A 
ATOM      7  O2  <0> d           3.702  -0.390  -0.037  0.00  0.00    -0.323 OA
ATOM      8  C7  <0> d           4.468   0.757  -0.451  0.00  0.00     0.115 C 
ATOM      9  O3  <0> d           3.668   1.875  -0.024  0.00  0.00    -0.323 OA
ATOM     10  H1  <0> d          -0.960   1.909   0.026  0.00  0.00     0.087 H 
ATOM     11  H2  <0> d           1.153   3.171   0.008  0.00  0.00     0.088 H 
ATOM     12  H3  <0> d           1.226  -1.762  -0.018  0.00  0.00     0.092 H 
ATOM     13  H5  <0> d           5.439   0.768   0.045  0.00  0.00     0.118 H 
ATOM     14  H6  <0> d           4.591   0.764  -1.534  0.00  0.00     0.118 H 
ENDROOT
BRANCH   6  15
ATOM     15  O1  <0> d          -1.166  -0.700   0.009  0.00  0.00    -0.361 OA
ATOM     16  H4  <0> d          -1.513  -0.896  -0.872  0.00  0.00     0.217 HD
ENDBRANCH   6  15
TORSDOF 1
