REMARK  4 active torsions:
REMARK  status: ('A' for Active; 'I' for Inactive)
REMARK    1  A    between atoms: C3_4  and  C6_12 
REMARK    2  A    between atoms: C4_6  and  O3_11 
REMARK    3  A    between atoms: C5_8  and  O2_10 
REMARK    4  A    between atoms: C6_12  and  O4_13 
ROOT
ATOM      1  C1  <0> d           2.298   1.493  -0.325  0.00  0.00    -0.052 C 
ATOM      2  C2  <0> d           1.171   2.069   0.002  0.00  0.00     0.012 C 
ATOM      3  O1  <0> d          -0.017   1.426   0.010  0.00  0.00    -0.353 OA
ATOM      4  C3  <0> d           0.002  -0.004   0.002  0.00  0.00     0.091 C 
ATOM      5  H1  <0> d           0.332  -0.373   0.974  0.00  0.00     0.091 H 
ATOM      6  C4  <0> d           0.982  -0.466  -1.086  0.00  0.00     0.091 C 
ATOM      7  H2  <0> d           0.682  -0.052  -2.049  0.00  0.00     0.091 H 
ATOM      8  C5  <0> d           2.380   0.043  -0.717  0.00  0.00     0.081 C 
ATOM      9  H3  <0> d           3.043  -0.065  -1.575  0.00  0.00     0.093 H 
ATOM     10  H4  <0> d           3.204   2.080  -0.312  0.00  0.00     0.083 H 
ATOM     11  H5  <0> d           1.191   3.113   0.279  0.00  0.00     0.122 H 
ENDROOT
BRANCH   4  12
ATOM     12  C6  <0> d          -1.399  -0.537  -0.305  0.00  0.00     0.044 C 
ATOM     13  H8  <0> d          -1.756  -0.105  -1.240  0.00  0.00     0.078 H 
ATOM     14  H9  <0> d          -1.362  -1.623  -0.398  0.00  0.00     0.078 H 
BRANCH  12  15
ATOM     15  O4  <0> d          -2.288  -0.180   0.755  0.00  0.00    -0.398 OA
ATOM     16  H10 <0> d          -3.196  -0.486   0.628  0.00  0.00     0.209 HD
ENDBRANCH  12  15
ENDBRANCH   4  12
BRANCH   6  17
ATOM     17  O3  <0> d           0.990  -1.893  -1.154  0.00  0.00    -0.390 OA
ATOM     18  H7  <0> d           1.589  -2.252  -1.823  0.00  0.00     0.210 HD
ENDBRANCH   6  17
BRANCH   8  19
ATOM     19  O2  <0> d           2.889  -0.720   0.379  0.00  0.00    -0.389 OA
ATOM     20  H6  <0> d           3.773  -0.452   0.667  0.00  0.00     0.210 HD
ENDBRANCH   8  19
TORSDOF 4
