REMARK  3 active torsions:
REMARK  status: ('A' for Active; 'I' for Inactive)
REMARK    1  A    between atoms: C1_1  and  C2_2 
REMARK    2  A    between atoms: C2_2  and  C3_3 
REMARK    3  A    between atoms: C3_3  and  C4_4 
ROOT
ATOM      1  C4  <0> d          -0.705   1.566   3.765  0.00  0.00     0.004 C 
ATOM      2  H1  <0> d          -1.670   1.307   3.723  0.00  0.00     0.051 H 
ATOM      3  C5  <0> d          -0.043   0.960   5.020  0.00  0.00    -0.055 C 
ATOM      4  C6  <0> d          -0.095   2.111   6.056  0.00  0.00    -0.058 C 
ATOM      5  C7  <0> d           0.166   3.359   5.177  0.00  0.00    -0.009 C 
ATOM      6  C8  <0> d          -0.571   3.070   3.881  0.00  0.00     0.131 C 
ATOM      7  O1  <0> d          -0.974   3.888   3.090  0.00  0.00    -0.298 OA
ATOM      8  H9  <0> d          -0.611   0.099   5.375  0.00  0.00     0.034 H 
ATOM      9  H10 <0> d           0.989   0.678   4.811  0.00  0.00     0.034 H 
ATOM     10  H11 <0> d          -1.077   2.166   6.526  0.00  0.00     0.033 H 
ATOM     11  H12 <0> d           0.689   1.994   6.805  0.00  0.00     0.033 H 
ATOM     12  H13 <0> d          -0.184   4.173   5.641  0.00  0.00     0.044 H 
ATOM     13  H14 <0> d           1.234   3.478   4.992  0.00  0.00     0.044 H 
ENDROOT
BRANCH   1  14
ATOM     14  C3  <0> d           0.011   1.072   2.506  0.00  0.00    -0.056 C 
ATOM     15  H7  <0> d           0.026  -0.018   2.500  0.00  0.00     0.034 H 
ATOM     16  H8  <0> d           1.034   1.450   2.499  0.00  0.00     0.034 H 
BRANCH  14  17
ATOM     17  C2  <0> d          -0.729   1.579   1.267  0.00  0.00    -0.068 C 
ATOM     18  H5  <0> d          -0.744   2.669   1.273  0.00  0.00     0.032 H 
ATOM     19  H6  <0> d          -1.751   1.202   1.275  0.00  0.00     0.032 H 
BRANCH  17  20
ATOM     20  C1  <0> d          -0.013   1.086   0.008  0.00  0.00    -0.076 C 
ATOM     21  H2  <0> d           0.002  -0.004   0.002  0.00  0.00     0.027 H 
ATOM     22  H3  <0> d           1.010   1.463   0.000  0.00  0.00     0.027 H 
ATOM     23  H4  <0> d          -0.540   1.447  -0.875  0.00  0.00     0.027 H 
ENDBRANCH  17  20
ENDBRANCH  14  17
ENDBRANCH   1  14
TORSDOF 3
