REMARK  5 active torsions:
REMARK  status: ('A' for Active; 'I' for Inactive)
REMARK    1  A    between atoms: C1_1  and  C2_2 
REMARK    2  A    between atoms: C2_2  and  C3_3 
REMARK    3  A    between atoms: C2_2  and  C4_4 
REMARK    4  A    between atoms: C2_2  and  C5_6 
REMARK    5  A    between atoms: C4_4  and  O1_5 
ROOT
ATOM      1  C2  <0> d          -0.018   1.503   0.010  0.00  0.00     0.062 C 
ENDROOT
BRANCH   1   2
ATOM      2  C1  <0> d          -0.758   2.010  -1.229  0.00  0.00    -0.058 C 
ATOM      3  H1  <0> d          -1.781   1.632  -1.222  0.00  0.00     0.029 H 
ATOM      4  H2  <0> d          -0.773   3.099  -1.223  0.00  0.00     0.029 H 
ATOM      5  H3  <0> d          -0.248   1.658  -2.126  0.00  0.00     0.029 H 
ENDBRANCH   1   2
BRANCH   1   6
ATOM      6  C3  <0> d          -0.735   1.996   1.269  0.00  0.00    -0.058 C 
ATOM      7  H4  <0> d          -0.207   1.635   2.152  0.00  0.00     0.029 H 
ATOM      8  H5  <0> d          -0.749   3.086   1.275  0.00  0.00     0.029 H 
ATOM      9  H6  <0> d          -1.757   1.619   1.277  0.00  0.00     0.029 H 
ENDBRANCH   1   6
BRANCH   1  10
ATOM     10  C4  <0> d           1.417   2.032  -0.001  0.00  0.00     0.033 C 
ATOM     11  H7  <0> d           1.944   1.671   0.882  0.00  0.00     0.075 H 
ATOM     12  H8  <0> d           1.927   1.681  -0.897  0.00  0.00     0.075 H 
BRANCH  10  13
ATOM     13  O1  <0> d           1.398   3.461   0.007  0.00  0.00    -0.400 OA
ATOM     14  H9  <0> d           2.276   3.866   0.001  0.00  0.00     0.209 HD
ENDBRANCH  10  13
ENDBRANCH   1  10
BRANCH   1  15
ATOM     15  C5  <0> d           0.002  -0.004   0.002  0.00  0.00     0.183 C 
ATOM     16  O2  <0> d           1.056  -0.594  -0.011  0.00  0.00    -0.647 OA
ATOM     17  O3  <0> d          -1.151  -0.691   0.009  0.00  0.00    -0.647 OA
ENDBRANCH   1  15
TORSDOF 5
