REMARK  4 active torsions:
REMARK  status: ('A' for Active; 'I' for Inactive)
REMARK    1  A    between atoms: C1_1  and  C2_2 
REMARK    2  A    between atoms: C2_2  and  C3_3 
REMARK    3  A    between atoms: C5_6  and  C7_11 
REMARK    4  A    between atoms: C7_11  and  O2_12 
ROOT
ATOM      1  C3  <0> d          -1.266   2.058   0.019  0.00  0.00     0.025 C 
ATOM      2  H1  <0> d          -1.710   2.095  -0.976  0.00  0.00     0.054 H 
ATOM      3  C4  <0> d          -0.768   3.460   0.446  0.00  0.00    -0.033 C 
ATOM      4  C5  <0> d           0.711   3.415   0.003  0.00  0.00     0.033 C 
ATOM      5  H2  <0> d           1.335   3.964   0.708  0.00  0.00     0.075 H 
ATOM      6  N1  <0> d           1.077   1.993   0.003  0.00  0.00    -0.354 N 
ATOM      7  C6  <0> d          -0.014   1.209   0.009  0.00  0.00     0.222 C 
ATOM      8  O1  <0> d           0.002  -0.004   0.002  0.00  0.00    -0.273 OA
ATOM      9  H8  <0> d          -0.848   3.594   1.525  0.00  0.00     0.037 H 
ATOM     10  H9  <0> d          -1.310   4.243  -0.084  0.00  0.00     0.037 H 
ATOM     11  H10 <0> d           1.989   1.663  -0.002  0.00  0.00     0.162 HD
ENDROOT
BRANCH   1  12
ATOM     12  C2  <0> d          -2.273   1.516   1.035  0.00  0.00    -0.057 C 
ATOM     13  H6  <0> d          -1.792   1.422   2.009  0.00  0.00     0.033 H 
ATOM     14  H7  <0> d          -3.117   2.202   1.112  0.00  0.00     0.033 H 
BRANCH  12  15
ATOM     15  C1  <0> d          -2.771   0.144   0.578  0.00  0.00    -0.076 C 
ATOM     16  H3  <0> d          -3.489  -0.242   1.302  0.00  0.00     0.027 H 
ATOM     17  H4  <0> d          -3.253   0.238  -0.396  0.00  0.00     0.027 H 
ATOM     18  H5  <0> d          -1.928  -0.542   0.501  0.00  0.00     0.027 H 
ENDBRANCH  12  15
ENDBRANCH   1  12
BRANCH   4  19
ATOM     19  C7  <0> d           0.861   4.000  -1.403  0.00  0.00     0.035 C 
ATOM     20  H11 <0> d           0.297   3.394  -2.111  0.00  0.00     0.077 H 
ATOM     21  H12 <0> d           0.479   5.021  -1.413  0.00  0.00     0.077 H 
BRANCH  19  22
ATOM     22  O2  <0> d           2.241   4.004  -1.772  0.00  0.00    -0.399 OA
ATOM     23  H13 <0> d           2.411   4.363  -2.654  0.00  0.00     0.209 HD
ENDBRANCH  19  22
ENDBRANCH   4  19
TORSDOF 4
