REMARK  1 active torsions:
REMARK  status: ('A' for Active; 'I' for Inactive)
REMARK    1  A    between atoms: C1_1  and  C2_2 
ROOT
ATOM      1  C2  <0> d           1.093   3.067   0.008  0.00  0.00     0.024 A 
ATOM      2  C3  <0> d          -0.127   3.671   0.023  0.00  0.00     0.014 A 
ATOM      3  N1  <0> d          -1.237   2.930   0.030  0.00  0.00    -0.255 NA
ATOM      4  C4  <0> d          -1.187   1.625   0.017  0.00  0.00     0.066 A 
ATOM      5  N2  <0> d          -0.011   0.966   0.007  0.00  0.00    -0.318 N 
ATOM      6  H1  <0> d           0.003  -0.034   0.006  0.00  0.00     0.169 HD
ATOM      7  C5  <0> d           1.148   1.658  -0.000  0.00  0.00     0.253 A 
ATOM      8  O1  <0> d           2.221   1.076  -0.013  0.00  0.00    -0.268 OA
ATOM      9  H5  <0> d          -0.196   4.749   0.030  0.00  0.00     0.115 H 
ATOM     10  H6  <0> d          -2.108   1.060   0.017  0.00  0.00     0.143 H 
ENDROOT
BRANCH   1  11
ATOM     11  C1  <0> d           2.358   3.886  -0.000  0.00  0.00    -0.045 C 
ATOM     12  H2  <0> d           2.653   4.089  -1.030  0.00  0.00     0.033 H 
ATOM     13  H3  <0> d           2.184   4.828   0.521  0.00  0.00     0.033 H 
ATOM     14  H4  <0> d           3.152   3.334   0.503  0.00  0.00     0.033 H 
ENDBRANCH   1  11
TORSDOF 1
