REMARK  0 active torsions:
REMARK  status: ('A' for Active; 'I' for Inactive)
ROOT
ATOM      1  C1  <0> d          -0.018   1.456   0.010  0.00  0.00    -0.057 A 
ATOM      2  C2  <0> d           1.147   2.129   0.003  0.00  0.00    -0.019 A 
ATOM      3  N1  <0> d           2.356   1.499  -0.013  0.00  0.00    -0.333 N 
ATOM      4  H1  <0> d           3.163   2.037  -0.018  0.00  0.00     0.168 HD
ATOM      5  C3  <0> d           2.471   0.155  -0.021  0.00  0.00     0.257 A 
ATOM      6  O1  <0> d           3.570  -0.371  -0.034  0.00  0.00    -0.267 OA
ATOM      7  C4  <0> d           1.256  -0.664  -0.013  0.00  0.00     0.060 A 
ATOM      8  C5  <0> d           0.002  -0.004   0.002  0.00  0.00    -0.016 A 
ATOM      9  C6  <0> d          -1.159  -0.781   0.009  0.00  0.00    -0.055 A 
ATOM     10  C7  <0> d          -1.033  -2.143  -0.001  0.00  0.00     0.003 A 
ATOM     11  N2  <0> d           0.152  -2.732  -0.015  0.00  0.00    -0.272 NA
ATOM     12  C8  <0> d           1.283  -2.056  -0.020  0.00  0.00     0.018 A 
ATOM     13  H2  <0> d          -0.957   1.989   0.026  0.00  0.00     0.086 H 
ATOM     14  H3  <0> d           1.123   3.208   0.009  0.00  0.00     0.111 H 
ATOM     15  H4  <0> d          -2.134  -0.317   0.021  0.00  0.00     0.087 H 
ATOM     16  H5  <0> d          -1.924  -2.754   0.004  0.00  0.00     0.114 H 
ATOM     17  H6  <0> d           2.228  -2.579  -0.033  0.00  0.00     0.116 H 
ENDROOT
TORSDOF 0
