REMARK  1 active torsions:
REMARK  status: ('A' for Active; 'I' for Inactive)
REMARK    1  A    between atoms: C2_2  and  C4_7 
REMARK       I    between atoms: C4_7  and  N2_9 
ROOT
ATOM      1  C1  <0> d           1.833   1.826  -1.199  0.00  0.00    -0.005 A 
ATOM      2  C2  <0> d           3.092   2.407  -1.114  0.00  0.00     0.095 A 
ATOM      3  S1  <0> d           3.315   2.493   0.654  0.00  0.00     0.019 SA
ATOM      4  N1  <0> d           1.825   1.805   1.134  0.00  0.00    -0.183 NA
ATOM      5  C3  <0> d           1.223   1.533  -0.001  0.00  0.00     0.208 A 
ATOM      6  O1  <0> d          -0.011   0.963   0.007  0.00  0.00    -0.170 OA
ATOM      7  H1  <0> d           1.361   1.617  -2.147  0.00  0.00     0.092 H 
ENDROOT
BRANCH   2   8
ATOM      8  C4  <0> d           3.997   2.835  -2.192  0.00  0.00     0.257 C 
ATOM      9  O2  <0> d           3.668   2.693  -3.354  0.00  0.00    -0.267 OA
ATOM     10  N2  <0> d           5.191   3.383  -1.891  0.00  0.00    -0.365 N 
ATOM     11  H2  <0> d           5.868   3.703  -2.697  0.00  0.00     0.159 HD
ATOM     12  H3  <0> d           5.488   3.511  -0.840  0.00  0.00     0.159 HD
ENDBRANCH   2   8
TORSDOF 1
