REMARK  0 active torsions:
REMARK  status: ('A' for Active; 'I' for Inactive)
ROOT
ATOM      1  C1  <0> d          -0.019   1.526   0.010  0.00  0.00    -0.060 C 
ATOM      2  C2  <0> d           1.414   2.067  -0.000  0.00  0.00    -0.060 C 
ATOM      3  C3  <0> d           2.067   1.761   1.356  0.00  0.00    -0.033 C 
ATOM      4  C4  <0> d           1.799   0.331   1.695  0.00  0.00     0.010 A 
ATOM      5  C5  <0> d           0.903  -0.489   1.130  0.00  0.00     0.026 A 
ATOM      6  N1  <0> d           0.874  -1.762   1.645  0.00  0.00    -0.320 N 
ATOM      7  H1  <0> d           0.253  -2.417   1.288  0.00  0.00     0.169 HD
ATOM      8  C6  <0> d           1.710  -2.101   2.646  0.00  0.00     0.288 A 
ATOM      9  O1  <0> d           1.816  -3.174   3.213  0.00  0.00    -0.260 OA
ATOM     10  S1  <0> d           2.573  -0.683   2.923  0.00  0.00    -0.032 SA
ATOM     11  C7  <0> d           0.002  -0.004   0.002  0.00  0.00    -0.026 C 
ATOM     12  H2  <0> d          -0.531   1.876   0.906  0.00  0.00     0.033 H 
ATOM     13  H3  <0> d          -0.548   1.885  -0.872  0.00  0.00     0.033 H 
ATOM     14  H4  <0> d           1.981   1.585  -0.796  0.00  0.00     0.033 H 
ATOM     15  H5  <0> d           1.396   3.145  -0.163  0.00  0.00     0.033 H 
ATOM     16  H6  <0> d           3.142   1.928   1.292  0.00  0.00     0.041 H 
ATOM     17  H7  <0> d           1.640   2.407   2.123  0.00  0.00     0.041 H 
ATOM     18  H8  <0> d          -1.008  -0.384   0.153  0.00  0.00     0.042 H 
ATOM     19  H9  <0> d           0.389  -0.359  -0.953  0.00  0.00     0.042 H 
ENDROOT
TORSDOF 0
