REMARK  4 active torsions:
REMARK  status: ('A' for Active; 'I' for Inactive)
REMARK    1  A    between atoms: C1_1  and  C2_2 
REMARK    2  A    between atoms: C3_3  and  C4_4 
REMARK    3  A    between atoms: C4_4  and  O1_9 
REMARK    4  A    between atoms: O1_9  and  C9_10 
ROOT
ATOM      1  C4  <0> d           0.038  -2.650  -0.013  0.00  0.00     0.123 C 
ATOM      2  C5  <0> d           0.719  -3.176   1.268  0.00  0.00    -0.025 C 
ATOM      3  C6  <0> d          -0.458  -3.467   2.232  0.00  0.00    -0.061 C 
ATOM      4  C7  <0> d          -1.543  -4.036   1.285  0.00  0.00    -0.061 C 
ATOM      5  C8  <0> d          -1.400  -3.196  -0.002  0.00  0.00    -0.025 C 
ATOM      6  H4  <0> d           1.274  -4.090   1.056  0.00  0.00     0.038 H 
ATOM      7  H5  <0> d           1.379  -2.417   1.689  0.00  0.00     0.038 H 
ATOM      8  H6  <0> d          -0.171  -4.207   2.979  0.00  0.00     0.033 H 
ATOM      9  H7  <0> d          -0.803  -2.549   2.708  0.00  0.00     0.033 H 
ATOM     10  H8  <0> d          -1.353  -5.089   1.076  0.00  0.00     0.033 H 
ATOM     11  H9  <0> d          -2.534  -3.904   1.718  0.00  0.00     0.033 H 
ATOM     12  H10 <0> d          -2.113  -2.372   0.009  0.00  0.00     0.038 H 
ATOM     13  H11 <0> d          -1.568  -3.824  -0.877  0.00  0.00     0.038 H 
ENDROOT
BRANCH   1  14
ATOM     14  C3  <0> d           0.018  -1.178  -0.004  0.00  0.00    -0.069 C 
ATOM     15  C2  <0> d           0.002  -0.004   0.002  0.00  0.00    -0.108 C 
BRANCH  15  16
ATOM     16  C1  <0> d          -0.018   1.468   0.010  0.00  0.00    -0.021 C 
ATOM     17  H1  <0> d           1.005   1.845   0.002  0.00  0.00     0.044 H 
ATOM     18  H2  <0> d          -0.545   1.829  -0.873  0.00  0.00     0.044 H 
ATOM     19  H3  <0> d          -0.528   1.819   0.907  0.00  0.00     0.044 H 
ENDBRANCH  15  16
ENDBRANCH   1  14
BRANCH   1  20
ATOM     20  O1  <0> d           0.733  -3.123  -1.168  0.00  0.00    -0.372 OA
BRANCH  20  21
ATOM     21  C9  <0> d           2.088  -2.677  -1.255  0.00  0.00     0.006 C 
ATOM     22  H12 <0> d           2.110  -1.588  -1.290  0.00  0.00     0.066 H 
ATOM     23  H13 <0> d           2.641  -3.024  -0.382  0.00  0.00     0.066 H 
ATOM     24  H14 <0> d           2.546  -3.079  -2.159  0.00  0.00     0.066 H 
ENDBRANCH  20  21
ENDBRANCH   1  20
TORSDOF 4
