REMARK  1 active torsions:
REMARK  status: ('A' for Active; 'I' for Inactive)
REMARK    1  A    between atoms: C1_1  and  C2_2 
ROOT
ATOM      1  C2  <0> d          -1.683   4.346   0.040  0.00  0.00    -0.014 A 
ATOM      2  C3  <0> d          -2.998   4.016   0.035  0.00  0.00    -0.072 A 
ATOM      3  C4  <0> d          -3.382   2.660   0.029  0.00  0.00    -0.067 A 
ATOM      4  C5  <0> d          -2.455   1.686   0.021  0.00  0.00    -0.009 A 
ATOM      5  N1  <0> d          -1.115   1.993   0.018  0.00  0.00    -0.256 N 
ATOM      6  C6  <0> d          -0.710   3.315   0.026  0.00  0.00     0.164 A 
ATOM      7  N2  <0> d           0.603   3.347   0.014  0.00  0.00    -0.151 NA
ATOM      8  N3  <0> d           1.065   2.023   0.003  0.00  0.00    -0.226 N 
ATOM      9  H1  <0> d           1.993   1.741  -0.007  0.00  0.00     0.194 HD
ATOM     10  C7  <0> d          -0.015   1.215   0.009  0.00  0.00     0.348 A 
ATOM     11  O1  <0> d           0.002  -0.004   0.002  0.00  0.00    -0.245 OA
ATOM     12  H5  <0> d          -3.750   4.792   0.042  0.00  0.00     0.084 H 
ATOM     13  H6  <0> d          -4.430   2.401   0.032  0.00  0.00     0.085 H 
ATOM     14  H7  <0> d          -2.766   0.652   0.017  0.00  0.00     0.112 H 
ENDROOT
BRANCH   1  15
ATOM     15  C1  <0> d          -1.261   5.792   0.043  0.00  0.00    -0.048 C 
ATOM     16  H2  <0> d          -1.169   6.146  -0.983  0.00  0.00     0.033 H 
ATOM     17  H3  <0> d          -2.008   6.388   0.567  0.00  0.00     0.033 H 
ATOM     18  H4  <0> d          -0.300   5.889   0.549  0.00  0.00     0.033 H 
ENDBRANCH   1  15
TORSDOF 1
