REMARK  4 active torsions:
REMARK  status: ('A' for Active; 'I' for Inactive)
REMARK    1  A    between atoms: C1_1  and  C2_2 
REMARK    2  A    between atoms: C2_2  and  C3_4 
REMARK    3  A    between atoms: C2_2  and  O3_8 
REMARK    4  A    between atoms: C3_4  and  S1_5 
ROOT
ATOM      1  C2  <0> d          -0.500   1.683   2.689  0.00  0.00     0.047 C 
ATOM      2  H1  <0> d           0.475   2.161   2.779  0.00  0.00     0.083 H 
ENDROOT
BRANCH   1   3
ATOM      3  C1  <0> d          -1.421   2.191   3.800  0.00  0.00    -0.051 C 
ATOM      4  H2  <0> d          -0.987   1.952   4.770  0.00  0.00     0.030 H 
ATOM      5  H3  <0> d          -1.537   3.272   3.710  0.00  0.00     0.030 H 
ATOM      6  H4  <0> d          -2.397   1.713   3.710  0.00  0.00     0.030 H 
ENDBRANCH   1   3
BRANCH   1   7
ATOM      7  C3  <0> d          -1.110   2.020   1.327  0.00  0.00     0.068 C 
ATOM      8  H5  <0> d          -1.225   3.100   1.237  0.00  0.00     0.064 H 
ATOM      9  H6  <0> d          -2.085   1.541   1.237  0.00  0.00     0.064 H 
BRANCH   7  10
ATOM     10  S1  <0> d          -0.017   1.417   0.010  0.00  0.00     0.104 S 
ATOM     11  O1  <0> d           0.002  -0.004   0.002  0.00  0.00    -0.595 OA
ATOM     12  O2  <0> d           1.195   2.158   0.002  0.00  0.00    -0.595 OA
ATOM     13  O4  <0> d          -0.716   1.803  -1.286  0.00  0.00    -0.595 OA
ENDBRANCH   7  10
ENDBRANCH   1   7
BRANCH   1  14
ATOM     14  O3  <0> d          -0.349   0.267   2.806  0.00  0.00    -0.395 OA
ATOM     15  H7  <0> d           0.033  -0.019   3.647  0.00  0.00     0.210 HD
ENDBRANCH   1  14
TORSDOF 4
