REMARK  2 active torsions:
REMARK  status: ('A' for Active; 'I' for Inactive)
REMARK    1  A    between atoms: C2_2  and  N2_9 
REMARK    2  A    between atoms: C3_3  and  O1_8 
ROOT
ATOM      1  C1  <0> d          -0.017   1.377   0.010  0.00  0.00    -0.016 A 
ATOM      2  C2  <0> d           1.190   2.071   0.002  0.00  0.00     0.063 A 
ATOM      3  C3  <0> d           2.379   1.333  -0.013  0.00  0.00     0.109 A 
ATOM      4  C4  <0> d           2.310  -0.048  -0.020  0.00  0.00     0.038 A 
ATOM      5  N1  <0> d           1.144  -0.667  -0.012  0.00  0.00    -0.246 NA
ATOM      6  C5  <0> d           0.002  -0.004   0.002  0.00  0.00     0.128 A 
ATOM      7 Cl1  <0> d          -1.496  -0.881   0.012  0.00  0.00    -0.062 Cl
ATOM      8  H1  <0> d          -0.955   1.912   0.026  0.00  0.00     0.092 H 
ATOM      9  H2  <0> d           3.222  -0.627  -0.032  0.00  0.00     0.119 H 
ENDROOT
BRANCH   2  10
ATOM     10  N2  <0> d           1.214   3.466   0.009  0.00  0.00    -0.397 N 
ATOM     11  H4  <0> d           0.383   3.965   0.019  0.00  0.00     0.156 HD
ATOM     12  H5  <0> d           2.062   3.936   0.003  0.00  0.00     0.156 HD
ENDBRANCH   2  10
BRANCH   3  13
ATOM     13  O1  <0> d           3.583   1.965  -0.022  0.00  0.00    -0.357 OA
ATOM     14  H3  <0> d           3.940   2.143   0.859  0.00  0.00     0.217 HD
ENDBRANCH   3  13
TORSDOF 2
