REMARK  5 active torsions:
REMARK  status: ('A' for Active; 'I' for Inactive)
REMARK    1  A    between atoms: C1_1  and  C2_2 
REMARK    2  A    between atoms: C2_2  and  C3_3 
REMARK    3  A    between atoms: C2_2  and  C4_4 
REMARK    4  A    between atoms: C4_4  and  C6_6 
REMARK    5  A    between atoms: C6_6  and  C7_7 
REMARK       I    between atoms: C7_7  and  N1_9 
ROOT
ATOM      1  C4  <0> d           0.707  -0.490  -1.238  0.00  0.00    -0.077 C 
ATOM      2  C5  <0> d           1.784  -1.229  -1.132  0.00  0.00    -0.118 C 
ATOM      3  H8  <0> d           2.289  -1.578  -2.021  0.00  0.00     0.067 H 
ATOM      4  H9  <0> d           2.166  -1.490  -0.156  0.00  0.00     0.067 H 
ENDROOT
BRANCH   1   5
ATOM      5  C2  <0> d           0.002  -0.004   0.002  0.00  0.00    -0.040 C 
ATOM      6  H4  <0> d           0.529  -0.365   0.885  0.00  0.00     0.045 H 
BRANCH   5   7
ATOM      7  C1  <0> d          -0.019   1.526   0.010  0.00  0.00    -0.070 C 
ATOM      8  H1  <0> d           1.004   1.903   0.003  0.00  0.00     0.028 H 
ATOM      9  H2  <0> d          -0.546   1.887  -0.873  0.00  0.00     0.028 H 
ATOM     10  H3  <0> d          -0.529   1.877   0.907  0.00  0.00     0.028 H 
ENDBRANCH   5   7
BRANCH   5  11
ATOM     11  C3  <0> d          -1.433  -0.534   0.013  0.00  0.00    -0.070 C 
ATOM     12  H5  <0> d          -1.960  -0.173  -0.870  0.00  0.00     0.028 H 
ATOM     13  H6  <0> d          -1.419  -1.623   0.007  0.00  0.00     0.028 H 
ATOM     14  H7  <0> d          -1.944  -0.182   0.910  0.00  0.00     0.028 H 
ENDBRANCH   5  11
ENDBRANCH   1   5
BRANCH   1  15
ATOM     15  C6  <0> d           0.175  -0.126  -2.600  0.00  0.00     0.029 C 
ATOM     16  H10 <0> d          -0.247   0.879  -2.568  0.00  0.00     0.053 H 
ATOM     17  H11 <0> d           0.986  -0.157  -3.327  0.00  0.00     0.053 H 
BRANCH  15  18
ATOM     18  C7  <0> d          -0.897  -1.107  -2.999  0.00  0.00     0.219 C 
ATOM     19  O1  <0> d          -1.198  -2.014  -2.252  0.00  0.00    -0.273 OA
ATOM     20  N1  <0> d          -1.520  -0.978  -4.187  0.00  0.00    -0.370 N 
ATOM     21  H12 <0> d          -1.279  -0.254  -4.785  0.00  0.00     0.159 HD
ATOM     22  H13 <0> d          -2.209  -1.610  -4.444  0.00  0.00     0.159 HD
ENDBRANCH  15  18
ENDBRANCH   1  15
TORSDOF 5
