REMARK  1 active torsions:
REMARK  status: ('A' for Active; 'I' for Inactive)
REMARK    1  A    between atoms: C2_2  and  O3_8 
ROOT
ATOM      1  C1  <0> d           2.188   0.886   0.469  0.00  0.00     0.042 C 
ATOM      2  C2  <0> d           1.485  -0.426   0.044  0.00  0.00     0.065 C 
ATOM      3  H1  <0> d           1.826  -0.746  -0.941  0.00  0.00     0.086 H 
ATOM      4  C3  <0> d           0.002  -0.004   0.002  0.00  0.00     0.053 C 
ATOM      5  O1  <0> d          -0.018   1.450   0.010  0.00  0.00    -0.319 OA
ATOM      6  C4  <0> d           1.222   1.957   0.001  0.00  0.00     0.261 C 
ATOM      7  O2  <0> d           1.522   3.081  -0.327  0.00  0.00    -0.265 OA
ATOM      8  H2  <0> d           2.310   0.924   1.552  0.00  0.00     0.051 H 
ATOM      9  H3  <0> d           3.151   0.986  -0.030  0.00  0.00     0.051 H 
ATOM     10  H4  <0> d          -0.520  -0.389   0.878  0.00  0.00     0.079 H 
ATOM     11  H5  <0> d          -0.467  -0.379  -0.908  0.00  0.00     0.079 H 
ENDROOT
BRANCH   2  12
ATOM     12  O3  <0> d           1.695  -1.453   1.015  0.00  0.00    -0.393 OA
ATOM     13  H6  <0> d           1.204  -2.267   0.839  0.00  0.00     0.210 HD
ENDBRANCH   2  12
TORSDOF 1
