REMARK  2 active torsions:
REMARK  status: ('A' for Active; 'I' for Inactive)
REMARK    1  A    between atoms: C1_1  and  O1_2 
REMARK    2  A    between atoms: O1_2  and  C2_3 
ROOT
ATOM      1  C2  <0> d          -0.017   1.425   0.010  0.00  0.00     0.233 C 
ATOM      2  O2  <0> d          -0.686   1.886   1.186  0.00  0.00    -0.339 OA
ATOM      3  C3  <0> d          -0.783   3.311   1.274  0.00  0.00     0.027 C 
ATOM      4  C4  <0> d          -1.519   3.837   0.037  0.00  0.00    -0.025 C 
ATOM      5  C5  <0> d          -0.806   3.324  -1.219  0.00  0.00     0.027 C 
ATOM      6  O3  <0> d          -0.709   1.898  -1.148  0.00  0.00    -0.339 OA
ATOM      7  H4  <0> d           1.005   1.802   0.002  0.00  0.00     0.179 H 
ATOM      8  H5  <0> d           0.218   3.742   1.314  0.00  0.00     0.074 H 
ATOM      9  H6  <0> d          -1.335   3.586   2.172  0.00  0.00     0.074 H 
ATOM     10  H7  <0> d          -1.510   4.927   0.043  0.00  0.00     0.039 H 
ATOM     11  H8  <0> d          -2.549   3.478   0.045  0.00  0.00     0.039 H 
ATOM     12  H9  <0> d           0.193   3.756  -1.273  0.00  0.00     0.074 H 
ATOM     13  H10 <0> d          -1.377   3.608  -2.103  0.00  0.00     0.074 H 
ENDROOT
BRANCH   1  14
ATOM     14  O1  <0> d           0.002  -0.004   0.002  0.00  0.00    -0.344 OA
BRANCH  14  15
ATOM     15  C1  <0> d          -1.295  -0.603   0.011  0.00  0.00     0.009 C 
ATOM     16  H1  <0> d          -1.832  -0.294   0.908  0.00  0.00     0.066 H 
ATOM     17  H2  <0> d          -1.849  -0.284  -0.872  0.00  0.00     0.066 H 
ATOM     18  H3  <0> d          -1.194  -1.688   0.004  0.00  0.00     0.066 H 
ENDBRANCH  14  15
ENDBRANCH   1  14
TORSDOF 2
