REMARK  1 active torsions:
REMARK  status: ('A' for Active; 'I' for Inactive)
REMARK    1  A    between atoms: C3_4  and  C5_8 
ROOT
ATOM      1  C1  <0> d          -0.701  -2.491   1.237  0.00  0.00     0.136 C 
ATOM      2  C2  <0> d           0.735  -1.960   1.224  0.00  0.00     0.137 C 
ATOM      3  N1  <0> d           0.712  -0.491   1.193  0.00  0.00     0.100 N 
ATOM      4  C3  <0> d           0.002  -0.004   0.002  0.00  0.00     0.249 C 
ATOM      5  H1  <0> d           0.545  -0.377  -0.879  0.00  0.00     0.105 H 
ATOM      6  C4  <0> d          -1.434  -0.534   0.014  0.00  0.00     0.148 C 
ATOM      7  N2  <0> d          -1.410  -2.003   0.046  0.00  0.00     0.087 N 
ATOM      8  H2  <0> d          -1.216  -2.135   2.142  0.00  0.00     0.082 H 
ATOM      9  H3  <0> d          -0.686  -3.591   1.231  0.00  0.00     0.082 H 
ATOM     10  H4  <0> d           1.260  -2.301   2.129  0.00  0.00     0.082 H 
ATOM     11  H5  <0> d           1.258  -2.339   0.334  0.00  0.00     0.082 H 
ATOM     12  H6  <0> d           0.199  -0.114   2.090  0.00  0.00     0.316 HD
ATOM     13  H7  <0> d          -1.957  -0.155   0.904  0.00  0.00     0.083 H 
ATOM     14  H8  <0> d          -1.958  -0.195  -0.891  0.00  0.00     0.083 H 
ATOM     15  H9  <0> d          -0.902  -2.369  -0.859  0.00  0.00     0.316 HD
ENDROOT
BRANCH   4  16
ATOM     16  C5  <0> d          -0.019   1.526   0.010  0.00  0.00     0.419 C 
ATOM     17  F1  <0> d           1.294   2.010   0.001  0.00  0.00    -0.169 F 
ATOM     18  F2  <0> d          -0.695   1.989  -1.123  0.00  0.00    -0.169 F 
ATOM     19  F3  <0> d          -0.673   1.977   1.161  0.00  0.00    -0.169 F 
ENDBRANCH   4  16
TORSDOF 1
