REMARK  0 active torsions:
REMARK  status: ('A' for Active; 'I' for Inactive)
ROOT
ATOM      1  C1  <0> d          -0.017   1.410   0.010  0.00  0.00    -0.049 A 
ATOM      2  C2  <0> d           1.160   2.068   0.002  0.00  0.00     0.019 A 
ATOM      3  O1  <0> d           2.329   1.418  -0.013  0.00  0.00    -0.332 OA
ATOM      4  C3  <0> d           2.422   0.081  -0.021  0.00  0.00     0.052 A 
ATOM      5  C4  <0> d           1.305  -0.682  -0.014  0.00  0.00     0.112 A 
ATOM      6  O2  <0> d           1.055  -2.009  -0.019  0.00  0.00    -0.273 OA
ATOM      7  C5  <0> d          -0.274  -2.225  -0.008  0.00  0.00     0.289 A 
ATOM      8  O3  <0> d          -0.804  -3.325  -0.009  0.00  0.00    -0.260 OA
ATOM      9  C6  <0> d          -0.956  -1.014   0.005  0.00  0.00     0.003 A 
ATOM     10  C7  <0> d           0.002  -0.004   0.002  0.00  0.00     0.007 A 
ATOM     11  H1  <0> d          -0.952   1.950   0.026  0.00  0.00     0.087 H 
ATOM     12  H2  <0> d           1.159   3.148   0.007  0.00  0.00     0.123 H 
ATOM     13  H3  <0> d           3.393  -0.390  -0.033  0.00  0.00     0.128 H 
ATOM     14  H4  <0> d          -2.027  -0.881   0.016  0.00  0.00     0.094 H 
ENDROOT
TORSDOF 0
