REMARK  1 active torsions:
REMARK  status: ('A' for Active; 'I' for Inactive)
REMARK    1  A    between atoms: C6_6  and  N1_7 
ROOT
ATOM      1  C1  <0> d           0.002  -0.004   0.002  0.00  0.00    -0.056 A 
ATOM      2  C2  <0> d          -0.017   1.373   0.010  0.00  0.00    -0.054 A 
ATOM      3  C3  <0> d           1.178   2.086   0.002  0.00  0.00     0.044 A 
ATOM      4  C4  <0> d           2.398   1.390  -0.013  0.00  0.00     0.015 A 
ATOM      5  C5  <0> d           2.409  -0.003  -0.021  0.00  0.00    -0.044 A 
ATOM      6  C6  <0> d           1.211  -0.696  -0.013  0.00  0.00     0.026 A 
ATOM      7  C7  <0> d           3.452   2.421  -0.018  0.00  0.00     0.072 A 
ATOM      8  C8  <0> d           2.815   3.626  -0.005  0.00  0.00    -0.002 A 
ATOM      9  N2  <0> d           1.472   3.435   0.006  0.00  0.00    -0.364 N 
ATOM     10  H1  <0> d           0.658   4.175   0.017  0.00  0.00     0.165 HD
ATOM     11  C9  <0> d           4.867   2.199  -0.032  0.00  0.00     0.102 C 
ATOM     12  N3  <0> d           5.989   2.023  -0.043  0.00  0.00    -0.191 NA
ATOM     13  H2  <0> d          -0.928  -0.552   0.008  0.00  0.00     0.087 H 
ATOM     14  H3  <0> d          -0.959   1.900   0.017  0.00  0.00     0.087 H 
ATOM     15  H4  <0> d           3.346  -0.538  -0.032  0.00  0.00     0.088 H 
ATOM     16  H7  <0> d           3.306   4.588  -0.005  0.00  0.00     0.113 H 
ENDROOT
BRANCH   6  17
ATOM     17  N1  <0> d           1.214  -2.095  -0.019  0.00  0.00    -0.399 N 
ATOM     18  H5  <0> d           2.168  -2.643  -0.031  0.00  0.00     0.156 HD
ATOM     19  H6  <0> d           0.263  -2.648  -0.013  0.00  0.00     0.156 HD
ENDBRANCH   6  17
TORSDOF 1
