REMARK  2 active torsions:
REMARK  status: ('A' for Active; 'I' for Inactive)
REMARK    1  A    between atoms: C1_1  and  C2_2 
REMARK    2  A    between atoms: C5_5  and  N3_9 
ROOT
ATOM      1  C2  <0> d          -0.718   1.572   1.248  0.00  0.00     0.055 A 
ATOM      2  C3  <0> d          -0.139   1.846   2.466  0.00  0.00     0.116 A 
ATOM      3  C4  <0> d          -1.263   2.283   3.315  0.00  0.00     0.153 A 
ATOM      4  C5  <0> d          -0.946   2.647   4.695  0.00  0.00     0.155 A 
ATOM      5  N1  <0> d           0.320   2.559   5.077  0.00  0.00    -0.222 NA
ATOM      6  C6  <0> d           1.282   2.158   4.259  0.00  0.00     0.089 A 
ATOM      7  N2  <0> d           1.094   1.813   3.012  0.00  0.00    -0.237 NA
ATOM      8  N4  <0> d          -2.334   2.226   2.558  0.00  0.00    -0.169 NA
ATOM      9  N5  <0> d          -2.033   1.826   1.373  0.00  0.00    -0.280 N 
ATOM     10  H1  <0> d          -2.706   1.683   0.514  0.00  0.00     0.189 HD
ATOM     11  H5  <0> d           2.288   2.114   4.648  0.00  0.00     0.146 H 
ENDROOT
BRANCH   1  12
ATOM     12  C1  <0> d          -0.013   1.086   0.008  0.00  0.00    -0.034 C 
ATOM     13  H2  <0> d           1.061   0.972   0.218  0.00  0.00     0.035 H 
ATOM     14  H3  <0> d          -0.152   1.816  -0.803  0.00  0.00     0.035 H 
ATOM     15  H4  <0> d          -0.432   0.115  -0.296  0.00  0.00     0.035 H 
ENDBRANCH   1  12
BRANCH   4  16
ATOM     16  N3  <0> d          -1.928   3.067   5.566  0.00  0.00    -0.382 N 
ATOM     17  H6  <0> d          -1.667   3.337   6.600  0.00  0.00     0.157 HD
ATOM     18  H7  <0> d          -2.972   3.134   5.228  0.00  0.00     0.157 HD
ENDBRANCH   4  16
TORSDOF 2
