REMARK  4 active torsions:
REMARK  status: ('A' for Active; 'I' for Inactive)
REMARK    1  A    between atoms: C1_1  and  C2_2 
REMARK    2  A    between atoms: C3_4  and  C5_7 
REMARK    3  A    between atoms: C5_7  and  O3_9 
REMARK    4  A    between atoms: O3_9  and  C6_10 
ROOT
ATOM      1  C2  <0> d           2.049   0.681  -0.014  0.00  0.00     0.141 A 
ATOM      2  N1  <0> d           1.308  -0.386  -0.013  0.00  0.00    -0.221 NA
ATOM      3  C3  <0> d           0.002  -0.004   0.002  0.00  0.00     0.156 A 
ATOM      4  C4  <0> d          -0.016   1.357   0.009  0.00  0.00     0.054 A 
ATOM      5  O1  <0> d           1.262   1.766  -0.001  0.00  0.00    -0.306 OA
ATOM      6  H4  <0> d          -0.893   1.988   0.017  0.00  0.00     0.127 H 
ENDROOT
BRANCH   3   7
ATOM      7  C5  <0> d          -1.170  -0.895   0.008  0.00  0.00     0.313 C 
ATOM      8  O2  <0> d          -2.291  -0.425   0.021  0.00  0.00    -0.257 OA
BRANCH   7   9
ATOM      9  O3  <0> d          -1.001  -2.232  -0.001  0.00  0.00    -0.321 OA
BRANCH   9  10
ATOM     10  C6  <0> d          -2.201  -3.049   0.006  0.00  0.00     0.013 C 
ATOM     11  H5  <0> d          -1.923  -4.103  -0.002  0.00  0.00     0.067 H 
ATOM     12  H6  <0> d          -2.782  -2.834   0.902  0.00  0.00     0.067 H 
ATOM     13  H7  <0> d          -2.799  -2.824  -0.877  0.00  0.00     0.067 H 
ENDBRANCH   9  10
ENDBRANCH   7   9
ENDBRANCH   3   7
BRANCH   1  14
ATOM     14  C1  <0> d           3.556   0.697  -0.028  0.00  0.00    -0.015 C 
ATOM     15  H1  <0> d           3.910   0.706  -1.059  0.00  0.00     0.038 H 
ATOM     16  H2  <0> d           3.915   1.588   0.487  0.00  0.00     0.038 H 
ATOM     17  H3  <0> d           3.933  -0.192   0.478  0.00  0.00     0.038 H 
ENDBRANCH   1  14
TORSDOF 4
