REMARK  3 active torsions:
REMARK  status: ('A' for Active; 'I' for Inactive)
REMARK    1  A    between atoms: C4_6  and  C5_8 
REMARK    2  A    between atoms: C5_8  and  C6_9 
REMARK    3  A    between atoms: C6_9  and  C7_10 
ROOT
ATOM      1  C1  <0> d           1.478   1.902  -0.002  0.00  0.00    -0.032 C 
ATOM      2  C2  <0> d          -0.018   1.509   0.010  0.00  0.00     0.018 C 
ATOM      3  C3  <0> d           0.002  -0.004   0.002  0.00  0.00     0.259 C 
ATOM      4  O1  <0> d          -0.938  -0.711   0.281  0.00  0.00    -0.265 OA
ATOM      5  O2  <0> d           1.213  -0.446  -0.360  0.00  0.00    -0.316 OA
ATOM      6  C4  <0> d           2.122   0.653  -0.642  0.00  0.00     0.049 C 
ATOM      7  H1  <0> d           2.223   0.791  -1.719  0.00  0.00     0.084 H 
ATOM      8  H2  <0> d           1.644   2.786  -0.617  0.00  0.00     0.037 H 
ATOM      9  H3  <0> d           1.849   2.057   1.011  0.00  0.00     0.037 H 
ATOM     10  H4  <0> d          -0.521   1.889  -0.879  0.00  0.00     0.048 H 
ATOM     11  H5  <0> d          -0.504   1.880   0.913  0.00  0.00     0.048 H 
ENDROOT
BRANCH   6  12
ATOM     12  C5  <0> d           3.490   0.382  -0.013  0.00  0.00    -0.031 C 
ATOM     13  H6  <0> d           4.126   1.260  -0.133  0.00  0.00     0.037 H 
ATOM     14  H7  <0> d           3.366   0.167   1.048  0.00  0.00     0.037 H 
BRANCH  12  15
ATOM     15  C6  <0> d           4.141  -0.818  -0.704  0.00  0.00     0.018 C 
ATOM     16  H8  <0> d           3.506  -1.695  -0.584  0.00  0.00     0.049 H 
ATOM     17  H9  <0> d           4.266  -0.602  -1.765  0.00  0.00     0.049 H 
BRANCH  15  18
ATOM     18  C7  <0> d           5.489  -1.084  -0.084  0.00  0.00     0.172 C 
ATOM     19  O3  <0> d           5.887  -0.386   0.818  0.00  0.00    -0.648 OA
ATOM     20  O4  <0> d           6.246  -2.097  -0.534  0.00  0.00    -0.648 OA
ENDBRANCH  15  18
ENDBRANCH  12  15
ENDBRANCH   6  12
TORSDOF 3
