REMARK  2 active torsions:
REMARK  status: ('A' for Active; 'I' for Inactive)
REMARK    1  A    between atoms: C1_1  and  C2_2 
REMARK    2  A    between atoms: N3_6  and  C4_7 
ROOT
ATOM      1  C4  <0> d           0.031  -0.427   2.442  0.00  0.00     0.041 A 
ATOM      2  C5  <0> d           0.939   0.525   2.884  0.00  0.00    -0.057 A 
ATOM      3  C6  <0> d           0.944   0.908   4.211  0.00  0.00    -0.081 A 
ATOM      4  C7  <0> d           0.045   0.344   5.098  0.00  0.00    -0.083 A 
ATOM      5  C8  <0> d          -0.860  -0.604   4.660  0.00  0.00    -0.081 A 
ATOM      6  C9  <0> d          -0.873  -0.988   3.333  0.00  0.00    -0.057 A 
ATOM      7  H5  <0> d           1.641   0.965   2.192  0.00  0.00     0.086 H 
ATOM      8  H6  <0> d           1.650   1.649   4.556  0.00  0.00     0.083 H 
ATOM      9  H7  <0> d           0.051   0.645   6.136  0.00  0.00     0.083 H 
ATOM     10  H8  <0> d          -1.561  -1.043   5.356  0.00  0.00     0.083 H 
ATOM     11  H9  <0> d          -1.584  -1.725   2.991  0.00  0.00     0.086 H 
ENDROOT
BRANCH   1  12
ATOM     12  N3  <0> d           0.024  -0.819   1.095  0.00  0.00    -0.291 N 
ATOM     13  C2  <0> d           0.002  -0.004   0.002  0.00  0.00     0.130 A 
ATOM     14  N1  <0> d           0.008  -0.773  -1.053  0.00  0.00    -0.136 NA
ATOM     15  N2  <0> d           0.026  -2.007  -0.695  0.00  0.00    -0.143 NA
ATOM     16  C3  <0> d           0.033  -2.092   0.608  0.00  0.00     0.093 A 
ATOM     17  H4  <0> d           0.048  -3.001   1.191  0.00  0.00     0.147 H 
BRANCH  13  18
ATOM     18  C1  <0> d          -0.018   1.503   0.010  0.00  0.00    -0.019 C 
ATOM     19  H1  <0> d           1.004   1.880   0.003  0.00  0.00     0.037 H 
ATOM     20  H2  <0> d          -0.545   1.864  -0.873  0.00  0.00     0.037 H 
ATOM     21  H3  <0> d          -0.529   1.854   0.907  0.00  0.00     0.037 H 
ENDBRANCH  13  18
ENDBRANCH   1  12
TORSDOF 2
