REMARK  0 active torsions:
REMARK  status: ('A' for Active; 'I' for Inactive)
ROOT
ATOM      1  C1  <0> d          -0.018   1.502   0.010  0.00  0.00    -0.068 C 
ATOM      2  C2  <0> d           1.276   1.849  -0.000  0.00  0.00     0.002 C 
ATOM      3  N1  <0> d           2.093   0.772   0.065  0.00  0.00    -0.245 NA
ATOM      4  C3  <0> d           1.458  -0.305   0.392  0.00  0.00     0.141 C 
ATOM      5  C4  <0> d           0.002  -0.004   0.002  0.00  0.00     0.078 C 
ATOM      6  H1  <0> d          -0.200  -0.371  -1.004  0.00  0.00     0.070 H 
ATOM      7  C5  <0> d          -1.009  -0.559   0.979  0.00  0.00     0.091 C 
ATOM      8  N2  <0> d          -0.579  -1.579   1.708  0.00  0.00    -0.340 N 
ATOM      9  C6  <0> d           0.640  -2.090   1.559  0.00  0.00     0.067 C 
ATOM     10  N3  <0> d           1.636  -1.518   0.916  0.00  0.00    -0.228 NA
ATOM     11  N4  <0> d          -2.256  -0.055   1.099  0.00  0.00    -0.388 N 
ATOM     12  H2  <0> d          -0.880   2.153   0.026  0.00  0.00     0.081 H 
ATOM     13  H3  <0> d           1.626   2.870  -0.055  0.00  0.00     0.114 H 
ATOM     14  H4  <0> d           0.829  -3.055   2.005  0.00  0.00     0.143 H 
ATOM     15  H5  <0> d          -2.533   0.693   0.546  0.00  0.00     0.157 HD
ATOM     16  H6  <0> d          -2.876  -0.440   1.738  0.00  0.00     0.157 HD
ATOM     17  H7  <0> d          -1.171  -1.964   2.372  0.00  0.00     0.168 HD
ENDROOT
TORSDOF 0
