REMARK  2 active torsions:
REMARK  status: ('A' for Active; 'I' for Inactive)
REMARK    1  A    between atoms: C3_3  and  N2_12 
REMARK    2  A    between atoms: C6_6  and  C7_7 
ROOT
ATOM      1  C7  <0> d          -1.294  -0.774   0.011  0.00  0.00     0.076 A 
ATOM      2  C8  <0> d          -1.636  -1.566   1.274  0.00  0.00    -0.040 A 
ATOM      3  C9  <0> d          -1.208  -2.301   0.002  0.00  0.00    -0.040 A 
ATOM      4  C10 <0> d          -2.407  -0.151  -0.724  0.00  0.00     0.074 C 
ATOM      5  N1  <0> d          -3.266   0.330  -1.291  0.00  0.00    -0.196 NA
ATOM      6  H5  <0> d          -0.924  -1.531   2.098  0.00  0.00     0.036 H 
ATOM      7  H6  <0> d          -2.686  -1.627   1.561  0.00  0.00     0.036 H 
ATOM      8  H7  <0> d          -1.976  -2.845  -0.548  0.00  0.00     0.036 H 
ATOM      9  H8  <0> d          -0.215  -2.750  -0.011  0.00  0.00     0.036 H 
ENDROOT
BRANCH   1  10
ATOM     10  C6  <0> d           0.002  -0.004   0.002  0.00  0.00    -0.035 A 
ATOM     11  C1  <0> d          -0.017   1.379   0.010  0.00  0.00    -0.073 A 
ATOM     12  C2  <0> d           1.169   2.087   0.002  0.00  0.00    -0.057 A 
ATOM     13  H1  <0> d          -0.960   1.905   0.026  0.00  0.00     0.084 H 
ATOM     14  C3  <0> d           2.381   1.409  -0.013  0.00  0.00     0.025 A 
ATOM     15  H2  <0> d           1.153   3.167   0.008  0.00  0.00     0.086 H 
ATOM     16  C4  <0> d           2.396   0.020  -0.021  0.00  0.00    -0.057 A 
ATOM     17  C5  <0> d           1.207  -0.682  -0.013  0.00  0.00    -0.073 A 
ATOM     18  H3  <0> d           3.337  -0.510  -0.033  0.00  0.00     0.086 H 
ATOM     19  H4  <0> d           1.218  -1.762  -0.019  0.00  0.00     0.084 H 
BRANCH  14  20
ATOM     20  N2  <0> d           3.582   2.122  -0.021  0.00  0.00    -0.399 N 
ATOM     21  H9  <0> d           3.570   3.092  -0.016  0.00  0.00     0.156 HD
ATOM     22  H10 <0> d           4.428   1.647  -0.032  0.00  0.00     0.156 HD
ENDBRANCH  14  20
ENDBRANCH   1  10
TORSDOF 2
