REMARK  1 active torsions:
REMARK  status: ('A' for Active; 'I' for Inactive)
REMARK    1  A    between atoms: C5_6  and  C6_7 
ROOT
ATOM      1  C1  <0> d           4.214  -0.539  -0.034  0.00  0.00    -0.052 A 
ATOM      2  C2  <0> d           5.593  -0.486  -0.050  0.00  0.00     0.003 A 
ATOM      3  N1  <0> d           6.226   0.671  -0.050  0.00  0.00    -0.273 NA
ATOM      4  C3  <0> d           5.580   1.821  -0.040  0.00  0.00     0.003 A 
ATOM      5  C4  <0> d           4.201   1.859  -0.027  0.00  0.00    -0.052 A 
ATOM      6  C5  <0> d           3.490   0.656  -0.027  0.00  0.00     0.018 A 
ATOM      7  H1  <0> d           3.702  -1.490  -0.029  0.00  0.00     0.087 H 
ATOM      8  H2  <0> d           6.161  -1.405  -0.059  0.00  0.00     0.114 H 
ATOM      9  H3  <0> d           6.138   2.746  -0.040  0.00  0.00     0.114 H 
ATOM     10  H4  <0> d           3.678   2.804  -0.019  0.00  0.00     0.087 H 
ENDROOT
BRANCH   6  11
ATOM     11  C6  <0> d           2.005   0.648  -0.014  0.00  0.00     0.206 A 
ATOM     12  N4  <0> d           1.199   1.718  -0.000  0.00  0.00    -0.106 NA
ATOM     13  N3  <0> d          -0.015   1.283   0.009  0.00  0.00    -0.021 NA
ATOM     14  N5  <0> d           0.003  -0.004   0.002  0.00  0.00    -0.021 NA
ATOM     15  N2  <0> d           1.224  -0.414  -0.012  0.00  0.00    -0.106 NA
ENDBRANCH   6  11
TORSDOF 1
