REMARK  2 active torsions:
REMARK  status: ('A' for Active; 'I' for Inactive)
REMARK    1  A    between atoms: C1_1  and  N1_2 
REMARK    2  A    between atoms: C7_8  and  N2_11 
ROOT
ATOM      1  N1  <0> d           1.301  -0.307  -0.637  0.00  0.00    -0.287 NA
ATOM      2  C2  <0> d           0.002  -0.004   0.002  0.00  0.00    -0.013 C 
ATOM      3  C3  <0> d          -0.019   1.542   0.011  0.00  0.00    -0.028 C 
ATOM      4  C4  <0> d           1.455   1.898  -0.002  0.00  0.00    -0.035 A 
ATOM      5  C5  <0> d           2.166   0.766  -0.384  0.00  0.00     0.018 A 
ATOM      6  C6  <0> d           3.554   0.832  -0.465  0.00  0.00    -0.037 A 
ATOM      7  C7  <0> d           4.213   2.016  -0.173  0.00  0.00     0.027 A 
ATOM      8  C8  <0> d           3.490   3.141   0.203  0.00  0.00    -0.057 A 
ATOM      9  C9  <0> d           2.112   3.076   0.287  0.00  0.00    -0.073 A 
ATOM     10  H4  <0> d          -0.811  -0.438  -0.598  0.00  0.00     0.056 H 
ATOM     11  H5  <0> d          -0.018  -0.436   1.014  0.00  0.00     0.056 H 
ATOM     12  H6  <0> d          -0.551   1.906  -0.881  0.00  0.00     0.042 H 
ATOM     13  H7  <0> d          -0.534   1.897   0.915  0.00  0.00     0.042 H 
ATOM     14  H8  <0> d           4.119  -0.042  -0.756  0.00  0.00     0.089 H 
ATOM     15  H9  <0> d           4.003   4.064   0.430  0.00  0.00     0.086 H 
ATOM     16  H10 <0> d           1.548   3.950   0.579  0.00  0.00     0.084 H 
ENDROOT
BRANCH   1  17
ATOM     17  C1  <0> d           1.860  -1.565  -0.124  0.00  0.00    -0.029 C 
ATOM     18  H1  <0> d           1.162  -2.389  -0.335  0.00  0.00     0.048 H 
ATOM     19  H2  <0> d           2.012  -1.483   0.963  0.00  0.00     0.048 H 
ATOM     20  H3  <0> d           2.823  -1.766  -0.615  0.00  0.00     0.048 H 
ENDBRANCH   1  17
BRANCH   7  21
ATOM     21  N2  <0> d           5.606   2.077  -0.255  0.00  0.00    -0.399 N 
ATOM     22  H11 <0> d           6.130   3.016  -0.024  0.00  0.00     0.156 HD
ATOM     23  H12 <0> d           6.179   1.187  -0.552  0.00  0.00     0.156 HD
ENDBRANCH   7  21
TORSDOF 2
