REMARK  0 active torsions:
REMARK  status: ('A' for Active; 'I' for Inactive)
ROOT
ATOM      1  C1  <0> d           3.339   3.047  -0.013  0.00  0.00    -0.065 A 
ATOM      2  C2  <0> d           2.520   1.929  -0.011  0.00  0.00    -0.064 A 
ATOM      3  C3  <0> d           1.139   2.125   0.003  0.00  0.00     0.066 A 
ATOM      4  C4  <0> d           0.619   3.432   0.014  0.00  0.00     0.144 A 
ATOM      5  N1  <0> d           1.453   4.464   0.011  0.00  0.00    -0.242 NA
ATOM      6  C5  <0> d           2.762   4.304  -0.002  0.00  0.00     0.004 A 
ATOM      7  N2  <0> d          -0.768   3.378   0.026  0.00  0.00    -0.304 N 
ATOM      8  C6  <0> d          -1.215   2.110   0.018  0.00  0.00     0.298 A 
ATOM      9  O1  <0> d          -2.375   1.758   0.021  0.00  0.00    -0.264 OA
ATOM     10  C7  <0> d          -0.014   1.209   0.009  0.00  0.00     0.253 A 
ATOM     11  O2  <0> d           0.002  -0.004   0.002  0.00  0.00    -0.281 OA
ATOM     12  H1  <0> d           4.413   2.939  -0.024  0.00  0.00     0.085 H 
ATOM     13  H2  <0> d           2.940   0.933  -0.020  0.00  0.00     0.085 H 
ATOM     14  H3  <0> d           3.399   5.176  -0.004  0.00  0.00     0.114 H 
ATOM     15  H4  <0> d          -1.355   4.308   0.041  0.00  0.00     0.171 HD
ENDROOT
TORSDOF 0
