REMARK  2 active torsions:
REMARK  status: ('A' for Active; 'I' for Inactive)
REMARK    1  A    between atoms: C1_1  and  C2_2 
REMARK    2  A    between atoms: C3_3  and  C5_9 
ROOT
ATOM      1  C2  <0> d           1.235   1.787  -0.000  0.00  0.00     0.040 A 
ATOM      2  C3  <0> d          -0.016   1.349   0.009  0.00  0.00     0.077 A 
ATOM      3  O1  <0> d           0.002  -0.004   0.002  0.00  0.00    -0.264 OA
ATOM      4  C4  <0> d           1.279  -0.417  -0.012  0.00  0.00     0.370 A 
ATOM      5  O2  <0> d           1.657  -1.574  -0.022  0.00  0.00    -0.238 OA
ATOM      6  N1  <0> d           2.069   0.676  -0.014  0.00  0.00    -0.304 N 
ATOM      7  H1  <0> d           3.039   0.684  -0.024  0.00  0.00     0.171 HD
ENDROOT
BRANCH   1   8
ATOM      8  C1  <0> d           1.674   3.229   0.003  0.00  0.00    -0.035 C 
ATOM      9  H2  <0> d           1.790   3.571   1.031  0.00  0.00     0.035 H 
ATOM     10  H3  <0> d           2.626   3.320  -0.519  0.00  0.00     0.035 H 
ATOM     11  H4  <0> d           0.924   3.838  -0.501  0.00  0.00     0.035 H 
ENDBRANCH   1   8
BRANCH   2  12
ATOM     12  C5  <0> d          -1.251   2.213   0.020  0.00  0.00    -0.029 C 
ATOM     13  H5  <0> d          -2.138   1.579   0.022  0.00  0.00     0.036 H 
ATOM     14  H6  <0> d          -1.250   2.838   0.913  0.00  0.00     0.036 H 
ATOM     15  H7  <0> d          -1.259   2.847  -0.867  0.00  0.00     0.036 H 
ENDBRANCH   2  12
TORSDOF 2
