REMARK  2 active torsions:
REMARK  status: ('A' for Active; 'I' for Inactive)
REMARK    1  A    between atoms: C1_1  and  C2_2 
REMARK    2  A    between atoms: C6_7  and  C7_8 
ROOT
ATOM      1  C2  <0> d           2.469   3.730   0.104  0.00  0.00    -0.039 A 
ATOM      2  C3  <0> d           2.439   5.092   0.336  0.00  0.00    -0.020 A 
ATOM      3  C4  <0> d           1.234   5.771   0.236  0.00  0.00     0.210 A 
ATOM      4  N1  <0> d           0.118   5.137  -0.078  0.00  0.00    -0.232 NA
ATOM      5  C5  <0> d           0.098   3.842  -0.313  0.00  0.00     0.022 A 
ATOM      6  C6  <0> d           1.268   3.086  -0.227  0.00  0.00     0.064 A 
ATOM      7  F1  <0> d           1.201   7.103   0.462  0.00  0.00    -0.184 F 
ATOM      8  H4  <0> d           3.345   5.621   0.593  0.00  0.00     0.091 H 
ATOM      9  H5  <0> d          -0.833   3.359  -0.571  0.00  0.00     0.116 H 
ENDROOT
BRANCH   1  10
ATOM     10  C1  <0> d           3.758   2.957   0.204  0.00  0.00    -0.050 C 
ATOM     11  H1  <0> d           4.576   3.642   0.472  0.00  0.00     0.033 H 
ATOM     12  H2  <0> d           3.978   2.484  -0.765  0.00  0.00     0.033 H 
ATOM     13  H3  <0> d           3.662   2.181   0.977  0.00  0.00     0.033 H 
ENDBRANCH   1  10
BRANCH   6  14
ATOM     14  C7  <0> d           1.244   1.633  -0.486  0.00  0.00     0.211 C 
ATOM     15  O1  <0> d           2.283   1.004  -0.517  0.00  0.00    -0.644 OA
ATOM     16  O2  <0> d           0.069   1.004  -0.686  0.00  0.00    -0.644 OA
ENDBRANCH   6  14
TORSDOF 2
