REMARK  1 active torsions:
REMARK  status: ('A' for Active; 'I' for Inactive)
REMARK    1  A    between atoms: C4_5  and  N3_9 
ROOT
ATOM      1  C1  <0> d          -1.227   2.132   0.019  0.00  0.00    -0.044 A 
ATOM      2  C2  <0> d          -1.200   3.511   0.031  0.00  0.00     0.003 A 
ATOM      3  N1  <0> d          -0.058   4.171   0.024  0.00  0.00    -0.271 NA
ATOM      4  C3  <0> d           1.107   3.556   0.010  0.00  0.00     0.028 A 
ATOM      5  C4  <0> d           1.179   2.168   0.002  0.00  0.00     0.064 A 
ATOM      6  C5  <0> d          -0.017   1.428   0.010  0.00  0.00     0.073 A 
ATOM      7  C6  <0> d           0.002  -0.004   0.002  0.00  0.00     0.102 C 
ATOM      8  N2  <0> d           0.018  -1.140  -0.004  0.00  0.00    -0.191 NA
ATOM      9  H1  <0> d          -2.169   1.603   0.021  0.00  0.00     0.088 H 
ATOM     10  H2  <0> d          -2.130   4.060   0.043  0.00  0.00     0.114 H 
ATOM     11  H3  <0> d           2.017   4.138   0.005  0.00  0.00     0.118 H 
ENDROOT
BRANCH   5  12
ATOM     12  N3  <0> d           2.411   1.523  -0.013  0.00  0.00    -0.397 N 
ATOM     13  H4  <0> d           2.456   0.424  -0.019  0.00  0.00     0.156 HD
ATOM     14  H5  <0> d           3.340   2.112  -0.019  0.00  0.00     0.156 HD
ENDBRANCH   5  12
TORSDOF 1
