REMARK  4 active torsions:
REMARK  status: ('A' for Active; 'I' for Inactive)
REMARK    1  A    between atoms: C1_1  and  C2_2 
REMARK    2  A    between atoms: C2_2  and  C3_3 
REMARK    3  A    between atoms: C3_3  and  S1_4 
REMARK    4  A    between atoms: S1_4  and  C4_5 
ROOT
ATOM      1  C4  <0> d          -0.104  -3.875  -1.058  0.00  0.00     0.001 A 
ATOM      2  C5  <0> d          -0.231  -4.214   0.286  0.00  0.00    -0.067 A 
ATOM      3  C6  <0> d          -0.326  -5.540   0.656  0.00  0.00    -0.082 A 
ATOM      4  C7  <0> d          -0.295  -6.533  -0.308  0.00  0.00    -0.083 A 
ATOM      5  C8  <0> d          -0.169  -6.201  -1.646  0.00  0.00    -0.082 A 
ATOM      6  C9  <0> d          -0.080  -4.877  -2.025  0.00  0.00    -0.067 A 
ATOM      7  H4  <0> d          -0.255  -3.440   1.039  0.00  0.00     0.085 H 
ATOM      8  H5  <0> d          -0.424  -5.804   1.698  0.00  0.00     0.083 H 
ATOM      9  H6  <0> d          -0.369  -7.570  -0.015  0.00  0.00     0.083 H 
ATOM     10  H7  <0> d          -0.145  -6.979  -2.394  0.00  0.00     0.083 H 
ATOM     11  H8  <0> d           0.014  -4.619  -3.069  0.00  0.00     0.085 H 
ENDROOT
BRANCH   1  12
ATOM     12  S1  <0> d           0.017  -2.184  -1.536  0.00  0.00    -0.111 SA
BRANCH  12  13
ATOM     13  C3  <0> d          -0.088  -2.228  -3.294  0.00  0.00     0.065 C 
ATOM     14  H3  <0> d          -0.287  -3.162  -3.800  0.00  0.00     0.078 H 
BRANCH  13  15
ATOM     15  C2  <0> d           0.074  -1.132  -3.987  0.00  0.00    -0.165 C 
BRANCH  15  16
ATOM     16  C1  <0> d           0.236  -0.035  -4.679  0.00  0.00    -0.011 C 
ATOM     17  H1  <0> d          -0.615   0.586  -4.915  0.00  0.00     0.051 H 
ATOM     18  H2  <0> d           1.223   0.252  -5.012  0.00  0.00     0.051 H 
ENDBRANCH  15  16
ENDBRANCH  13  15
ENDBRANCH  12  13
ENDBRANCH   1  12
TORSDOF 4
