REMARK  2 active torsions:
REMARK  status: ('A' for Active; 'I' for Inactive)
REMARK    1  A    between atoms: C2_2  and  S1_3 
REMARK    2  A    between atoms: S1_3  and  C3_5 
ROOT
ATOM      1  C3  <0> d           1.175   1.783   0.000  0.00  0.00     0.035 A 
ATOM      2  C4  <0> d          -0.013   1.076   0.008  0.00  0.00    -0.064 A 
ATOM      3  C5  <0> d          -1.219   1.751   0.017  0.00  0.00    -0.082 A 
ATOM      4  C6  <0> d          -1.238   3.133   0.029  0.00  0.00    -0.083 A 
ATOM      5  C7  <0> d          -0.050   3.840   0.022  0.00  0.00    -0.082 A 
ATOM      6  C8  <0> d           1.156   3.165   0.008  0.00  0.00    -0.064 A 
ATOM      7  H4  <0> d           0.002  -0.004   0.002  0.00  0.00     0.085 H 
ATOM      8  H5  <0> d          -2.147   1.198   0.019  0.00  0.00     0.083 H 
ATOM      9  H6  <0> d          -2.180   3.660   0.040  0.00  0.00     0.083 H 
ATOM     10  H7  <0> d          -0.065   4.920   0.028  0.00  0.00     0.083 H 
ATOM     11  H8  <0> d           2.084   3.718   0.003  0.00  0.00     0.085 H 
ENDROOT
BRANCH   1  12
ATOM     12  S1  <0> d           2.713   0.923  -0.018  0.00  0.00     0.073 S 
ATOM     13  O1  <0> d           2.379  -0.387   0.418  0.00  0.00    -0.248 OA
BRANCH  12  14
ATOM     14  C2  <0> d           3.069   0.724  -1.732  0.00  0.00    -0.023 C 
ATOM     15  C1  <0> d           4.164   0.111  -2.107  0.00  0.00    -0.113 C 
ATOM     16  H1  <0> d           4.849  -0.272  -1.365  0.00  0.00     0.067 H 
ATOM     17  H2  <0> d           4.382  -0.011  -3.158  0.00  0.00     0.067 H 
ATOM     18  H3  <0> d           2.384   1.107  -2.474  0.00  0.00     0.097 H 
ENDBRANCH  12  14
ENDBRANCH   1  12
TORSDOF 2
