REMARK  6 active torsions:
REMARK  status: ('A' for Active; 'I' for Inactive)
REMARK    1  A    between atoms: C1_1  and  C2_2 
REMARK       I    between atoms: C2_2  and  N1_4 
REMARK    2  A    between atoms: N1_4  and  C3_5 
REMARK    3  A    between atoms: C3_5  and  C4_6 
REMARK    4  A    between atoms: C4_6  and  C5_7 
REMARK    5  A    between atoms: C5_7  and  O3_9 
REMARK    6  A    between atoms: O3_9  and  C6_10 
ROOT
ATOM      1  C3  <0> d          -1.136  -2.159   0.001  0.00  0.00     0.004 C 
ATOM      2  H5  <0> d          -0.626  -2.510  -0.895  0.00  0.00     0.064 H 
ATOM      3  H6  <0> d          -0.609  -2.520   0.884  0.00  0.00     0.064 H 
ENDROOT
BRANCH   1   4
ATOM      4  N1  <0> d          -1.156  -0.694   0.009  0.00  0.00    -0.361 N 
ATOM      5  C2  <0> d           0.002  -0.004   0.002  0.00  0.00     0.213 C 
ATOM      6  O1  <0> d           1.060  -0.596  -0.011  0.00  0.00    -0.274 OA
ATOM      7  H4  <0> d          -2.002  -0.220   0.020  0.00  0.00     0.162 HD
BRANCH   5   8
ATOM      8  C1  <0> d          -0.018   1.503   0.010  0.00  0.00    -0.003 C 
ATOM      9  H1  <0> d           1.004   1.880   0.003  0.00  0.00     0.040 H 
ATOM     10  H2  <0> d          -0.545   1.864  -0.873  0.00  0.00     0.040 H 
ATOM     11  H3  <0> d          -0.529   1.854   0.907  0.00  0.00     0.040 H 
ENDBRANCH   5   8
ENDBRANCH   1   4
BRANCH   1  12
ATOM     12  C4  <0> d          -2.571  -2.688   0.012  0.00  0.00     0.030 C 
ATOM     13  H7  <0> d          -3.082  -2.337   0.909  0.00  0.00     0.050 H 
ATOM     14  H8  <0> d          -3.099  -2.327  -0.871  0.00  0.00     0.050 H 
BRANCH  12  15
ATOM     15  C5  <0> d          -2.551  -4.195   0.004  0.00  0.00     0.259 C 
ATOM     16  O2  <0> d          -1.496  -4.785  -0.009  0.00  0.00    -0.265 OA
BRANCH  15  17
ATOM     17  O3  <0> d          -3.704  -4.882   0.011  0.00  0.00    -0.326 OA
BRANCH  17  18
ATOM     18  C6  <0> d          -3.610  -6.308   0.003  0.00  0.00     0.013 C 
ATOM     19  H9  <0> d          -3.082  -6.632  -0.894  0.00  0.00     0.067 H 
ATOM     20  H10 <0> d          -3.065  -6.641   0.886  0.00  0.00     0.067 H 
ATOM     21  H11 <0> d          -4.611  -6.738   0.010  0.00  0.00     0.067 H 
ENDBRANCH  17  18
ENDBRANCH  15  17
ENDBRANCH  12  15
ENDBRANCH   1  12
TORSDOF 6
