REMARK  5 active torsions:
REMARK  status: ('A' for Active; 'I' for Inactive)
REMARK    1  A    between atoms: C1_1  and  C2_2 
REMARK    2  A    between atoms: C2_2  and  O1_3 
REMARK    3  A    between atoms: O1_3  and  C3_4 
REMARK    4  A    between atoms: C3_4  and  C4_6 
REMARK    5  A    between atoms: C5_7  and  N3_11 
ROOT
ATOM      1  C3  <0> d           0.776  -1.798  -1.335  0.00  0.00     0.318 C 
ATOM      2  O2  <0> d           0.312  -2.549  -0.500  0.00  0.00    -0.257 OA
ENDROOT
BRANCH   1   3
ATOM      3  O1  <0> d           0.671  -0.465  -1.174  0.00  0.00    -0.317 OA
BRANCH   3   4
ATOM      4  C2  <0> d           0.002  -0.004   0.002  0.00  0.00     0.026 C 
ATOM      5  H4  <0> d           0.529  -0.365   0.885  0.00  0.00     0.074 H 
ATOM      6  H5  <0> d          -1.020  -0.381   0.010  0.00  0.00     0.074 H 
BRANCH   4   7
ATOM      7  C1  <0> d          -0.019   1.526   0.010  0.00  0.00    -0.056 C 
ATOM      8  H1  <0> d           1.004   1.903   0.003  0.00  0.00     0.030 H 
ATOM      9  H2  <0> d          -0.546   1.887  -0.873  0.00  0.00     0.030 H 
ATOM     10  H3  <0> d          -0.529   1.877   0.907  0.00  0.00     0.030 H 
ENDBRANCH   4   7
ENDBRANCH   3   4
ENDBRANCH   1   3
BRANCH   1  11
ATOM     11  C4  <0> d           1.456  -2.348  -2.529  0.00  0.00     0.208 A 
ATOM     12  N2  <0> d           1.994  -1.649  -3.495  0.00  0.00    -0.095 NA
ATOM     13  O3  <0> d           2.538  -2.557  -4.436  0.00  0.00    -0.104 OA
ATOM     14  N1  <0> d           2.280  -3.868  -3.968  0.00  0.00    -0.085 NA
ATOM     15  C5  <0> d           1.637  -3.771  -2.836  0.00  0.00     0.188 A 
BRANCH  15  16
ATOM     16  N3  <0> d           1.201  -4.833  -2.055  0.00  0.00    -0.380 N 
ATOM     17  H6  <0> d           0.730  -4.663  -1.225  0.00  0.00     0.158 HD
ATOM     18  H7  <0> d           1.368  -5.745  -2.341  0.00  0.00     0.158 HD
ENDBRANCH  15  16
ENDBRANCH   1  11
TORSDOF 5
