REMARK  0 active torsions:
REMARK  status: ('A' for Active; 'I' for Inactive)
ROOT
ATOM      1  C1  <0> d          -3.533   2.671   0.050  0.00  0.00    -0.082 A 
ATOM      2  C2  <0> d          -3.213   4.022   0.054  0.00  0.00    -0.081 A 
ATOM      3  C3  <0> d          -1.903   4.423   0.044  0.00  0.00    -0.056 A 
ATOM      4  C4  <0> d          -0.857   3.478   0.029  0.00  0.00     0.053 A 
ATOM      5  C5  <0> d          -1.187   2.122   0.018  0.00  0.00     0.050 A 
ATOM      6  C6  <0> d          -2.544   1.737   0.035  0.00  0.00    -0.066 A 
ATOM      7  C7  <0> d          -0.015   1.215   0.009  0.00  0.00     0.241 A 
ATOM      8  O1  <0> d           0.002  -0.004   0.002  0.00  0.00    -0.278 OA
ATOM      9  S1  <0> d           1.322   2.309   0.002  0.00  0.00     0.030 SA
ATOM     10  N1  <0> d           0.493   3.794   0.018  0.00  0.00    -0.323 N 
ATOM     11  H1  <0> d           0.884   4.681   0.018  0.00  0.00     0.174 HD
ATOM     12  H2  <0> d          -4.567   2.361   0.058  0.00  0.00     0.083 H 
ATOM     13  H3  <0> d          -4.001   4.760   0.065  0.00  0.00     0.083 H 
ATOM     14  H4  <0> d          -1.669   5.478   0.047  0.00  0.00     0.087 H 
ATOM     15  H5  <0> d          -2.800   0.688   0.032  0.00  0.00     0.085 H 
ENDROOT
TORSDOF 0
