REMARK  5 active torsions:
REMARK  status: ('A' for Active; 'I' for Inactive)
REMARK    1  A    between atoms: C1_1  and  C2_2 
REMARK    2  A    between atoms: C2_2  and  C3_3 
REMARK    3  A    between atoms: C3_3  and  C4_4 
REMARK    4  A    between atoms: C4_4  and  C5_5 
REMARK    5  A    between atoms: C5_5  and  C6_6 
ROOT
ATOM      1  C5  <0> d           1.396   3.585   0.008  0.00  0.00    -0.046 C 
ATOM      2  H11 <0> d           0.864   3.950  -0.883  0.00  0.00     0.035 H 
ATOM      3  H12 <0> d           0.881   3.940   0.913  0.00  0.00     0.035 H 
ENDROOT
BRANCH   1   4
ATOM      4  C4  <0> d           1.417   2.055  -0.000  0.00  0.00    -0.063 C 
ATOM      5  H9  <0> d           1.949   1.691   0.891  0.00  0.00     0.033 H 
ATOM      6  H10 <0> d           1.932   1.700  -0.905  0.00  0.00     0.033 H 
BRANCH   4   7
ATOM      7  C3  <0> d          -0.019   1.526   0.010  0.00  0.00    -0.065 C 
ATOM      8  H7  <0> d          -0.551   1.890  -0.881  0.00  0.00     0.033 H 
ATOM      9  H8  <0> d          -0.534   1.881   0.915  0.00  0.00     0.033 H 
BRANCH   7  10
ATOM     10  C2  <0> d           0.002  -0.004   0.002  0.00  0.00    -0.069 C 
ATOM     11  H5  <0> d           0.534  -0.368   0.893  0.00  0.00     0.032 H 
ATOM     12  H6  <0> d           0.517  -0.359  -0.903  0.00  0.00     0.032 H 
BRANCH  10  13
ATOM     13  C1  <0> d          -1.433  -0.534   0.013  0.00  0.00    -0.077 C 
ATOM     14  H2  <0> d          -1.418  -1.633   0.007  0.00  0.00     0.027 H 
ATOM     15  H3  <0> d          -1.965  -0.169  -0.878  0.00  0.00     0.027 H 
ATOM     16  H4  <0> d          -1.948  -0.179   0.918  0.00  0.00     0.027 H 
ENDBRANCH  10  13
ENDBRANCH   7  10
ENDBRANCH   4   7
ENDBRANCH   1   4
BRANCH   1  17
ATOM     17  C6  <0> d           2.831   4.115  -0.003  0.00  0.00     0.012 C 
ATOM     18  H1  <0> d           3.376   3.640   0.827  0.00  0.00     0.072 H 
ATOM     19  N1  <0> d           3.486   3.781  -1.273  0.00  0.00    -0.356 N 
ATOM     20  C9  <0> d           3.528   4.844  -2.095  0.00  0.00     0.217 C 
ATOM     21  H17 <0> d           3.865   2.763  -1.446  0.00  0.00     0.162 HD
ATOM     22  C8  <0> d           2.890   6.043  -1.428  0.00  0.00     0.011 C 
ATOM     23  O1  <0> d           4.007   4.843  -3.209  0.00  0.00    -0.274 OA
ATOM     24  C7  <0> d           2.832   5.658   0.069  0.00  0.00    -0.038 C 
ATOM     25  H15 <0> d           1.871   6.228  -1.798  0.00  0.00     0.047 H 
ATOM     26  H16 <0> d           3.495   6.954  -1.549  0.00  0.00     0.047 H 
ATOM     27  H13 <0> d           1.915   6.002   0.569  0.00  0.00     0.036 H 
ATOM     28  H14 <0> d           3.711   5.998   0.637  0.00  0.00     0.036 H 
ENDBRANCH   1  17
TORSDOF 5
