REMARK  3 active torsions:
REMARK  status: ('A' for Active; 'I' for Inactive)
REMARK    1  A    between atoms: C1_1  and  C4_8 
REMARK    2  A    between atoms: C2_2  and  O1_3 
REMARK    3  A    between atoms: C3_5  and  N2_6 
ROOT
ATOM      1  C1  <0> d          -0.022   1.782   0.012  0.00  0.00     0.137 A 
ATOM      2  C2  <0> d           1.350   2.058   0.000  0.00  0.00     0.189 A 
ATOM      3  N1  <0> d           2.147   1.016  -0.013  0.00  0.00    -0.199 NA
ATOM      4  C3  <0> d           1.671  -0.218  -0.015  0.00  0.00     0.168 A 
ATOM      5  S1  <0> d           0.002  -0.004   0.002  0.00  0.00    -0.041 SA
ENDROOT
BRANCH   1   6
ATOM      6  C4  <0> d          -1.115   2.664   0.032  0.00  0.00     0.221 C 
ATOM      7  O2  <0> d          -2.359   2.184   0.046  0.00  0.00    -0.643 OA
ATOM      8  O3  <0> d          -0.908   3.982   0.036  0.00  0.00    -0.643 OA
ENDBRANCH   1   6
BRANCH   2   9
ATOM      9  O1  <0> d           1.828   3.326   0.003  0.00  0.00    -0.344 OA
ATOM     10  H3  <0> d           1.975   3.689   0.887  0.00  0.00     0.219 HD
ENDBRANCH   2   9
BRANCH   4  11
ATOM     11  N2  <0> d           2.376  -1.399  -0.028  0.00  0.00    -0.378 N 
ATOM     12  H1  <0> d           3.346  -1.386  -0.036  0.00  0.00     0.158 HD
ATOM     13  H2  <0> d           1.903  -2.246  -0.027  0.00  0.00     0.158 HD
ENDBRANCH   4  11
TORSDOF 3
