REMARK  2 active torsions:
REMARK  status: ('A' for Active; 'I' for Inactive)
REMARK    1  A    between atoms: C4_4  and  O1_7 
REMARK    2  A    between atoms: O1_7  and  C7_8 
ROOT
ATOM      1  C1  <0> d          -0.013   1.076   0.008  0.00  0.00    -0.083 A 
ATOM      2  C2  <0> d          -1.220   1.750   0.017  0.00  0.00    -0.080 A 
ATOM      3  C3  <0> d          -1.241   3.131   0.031  0.00  0.00    -0.051 A 
ATOM      4  C4  <0> d          -0.050   3.842   0.023  0.00  0.00     0.074 A 
ATOM      5  C5  <0> d           1.160   3.163   0.007  0.00  0.00    -0.051 A 
ATOM      6  C6  <0> d           1.176   1.782   0.000  0.00  0.00    -0.080 A 
ATOM      7  H1  <0> d           0.002  -0.004   0.002  0.00  0.00     0.083 H 
ATOM      8  H2  <0> d          -2.147   1.196   0.018  0.00  0.00     0.083 H 
ATOM      9  H3  <0> d          -2.185   3.657   0.042  0.00  0.00     0.087 H 
ATOM     10  H4  <0> d           2.089   3.715   0.001  0.00  0.00     0.087 H 
ATOM     11  H5  <0> d           2.118   1.254  -0.011  0.00  0.00     0.083 H 
ENDROOT
BRANCH   4  12
ATOM     12  O1  <0> d          -0.069   5.201   0.029  0.00  0.00    -0.290 OA
BRANCH  12  13
ATOM     13  C7  <0> d          -1.350   5.832   0.045  0.00  0.00     0.310 C 
ATOM     14  F1  <0> d          -2.071   5.452  -1.092  0.00  0.00    -0.184 F 
ATOM     15  F2  <0> d          -2.049   5.441   1.192  0.00  0.00    -0.184 F 
ATOM     16  H6  <0> d          -1.222   6.915   0.049  0.00  0.00     0.195 H 
ENDBRANCH  12  13
ENDBRANCH   4  12
TORSDOF 2
