REMARK  4 active torsions:
REMARK  status: ('A' for Active; 'I' for Inactive)
REMARK    1  A    between atoms: C1_1  and  C2_2 
REMARK    2  A    between atoms: C2_2  and  O1_3 
REMARK    3  A    between atoms: O1_3  and  C3_4 
REMARK    4  A    between atoms: C3_4  and  C4_5 
ROOT
ATOM      1  C4  <0> d           1.515  -2.287   2.501  0.00  0.00    -0.032 A 
ATOM      2  C5  <0> d           2.889  -2.441   2.468  0.00  0.00    -0.075 A 
ATOM      3  C6  <0> d           3.574  -2.794   3.615  0.00  0.00    -0.080 A 
ATOM      4  C7  <0> d           2.886  -2.995   4.797  0.00  0.00    -0.046 A 
ATOM      5  C8  <0> d           1.510  -2.841   4.832  0.00  0.00     0.117 A 
ATOM      6  C9  <0> d           0.826  -2.481   3.683  0.00  0.00    -0.038 A 
ATOM      7  F1  <0> d           0.837  -3.037   5.986  0.00  0.00    -0.206 F 
ATOM      8  H8  <0> d           3.427  -2.285   1.544  0.00  0.00     0.084 H 
ATOM      9  H9  <0> d           4.647  -2.914   3.588  0.00  0.00     0.083 H 
ATOM     10  H10 <0> d           3.421  -3.272   5.693  0.00  0.00     0.088 H 
ATOM     11  H11 <0> d          -0.246  -2.356   3.709  0.00  0.00     0.089 H 
ENDROOT
BRANCH   1  12
ATOM     12  C3  <0> d           0.770  -1.902   1.249  0.00  0.00     0.043 C 
ATOM     13  H6  <0> d          -0.237  -2.318   1.283  0.00  0.00     0.081 H 
ATOM     14  H7  <0> d           1.296  -2.292   0.378  0.00  0.00     0.081 H 
BRANCH  12  15
ATOM     15  O1  <0> d           0.693  -0.477   1.160  0.00  0.00    -0.387 OA
BRANCH  15  16
ATOM     16  C2  <0> d           0.002  -0.004   0.002  0.00  0.00     0.017 C 
ATOM     17  H4  <0> d          -1.020  -0.381   0.010  0.00  0.00     0.073 H 
ATOM     18  H5  <0> d           0.512  -0.356  -0.895  0.00  0.00     0.073 H 
BRANCH  16  19
ATOM     19  C1  <0> d          -0.019   1.526   0.010  0.00  0.00    -0.056 C 
ATOM     20  H1  <0> d           1.004   1.903   0.003  0.00  0.00     0.030 H 
ATOM     21  H2  <0> d          -0.546   1.887  -0.873  0.00  0.00     0.030 H 
ATOM     22  H3  <0> d          -0.529   1.877   0.907  0.00  0.00     0.030 H 
ENDBRANCH  16  19
ENDBRANCH  15  16
ENDBRANCH  12  15
ENDBRANCH   1  12
TORSDOF 4
