REMARK  1 active torsions:
REMARK  status: ('A' for Active; 'I' for Inactive)
REMARK    1  A    between atoms: C1_1  and  C2_2 
ROOT
ATOM      1  C2  <0> d           1.150   3.161   0.008  0.00  0.00    -0.059 A 
ATOM      2  C3  <0> d           1.179   1.775   0.000  0.00  0.00    -0.060 A 
ATOM      3  C4  <0> d          -0.013   1.076   0.008  0.00  0.00     0.002 A 
ATOM      4  N1  <0> d          -1.168   1.712   0.017  0.00  0.00    -0.273 NA
ATOM      5  C5  <0> d          -1.234   3.029   0.029  0.00  0.00     0.002 A 
ATOM      6  C6  <0> d          -0.084   3.795   0.022  0.00  0.00    -0.060 A 
ATOM      7  H4  <0> d           2.122   1.248  -0.011  0.00  0.00     0.086 H 
ATOM      8  H5  <0> d           0.002  -0.004   0.002  0.00  0.00     0.114 H 
ATOM      9  H6  <0> d          -2.199   3.515   0.041  0.00  0.00     0.114 H 
ATOM     10  H7  <0> d          -0.144   4.873   0.028  0.00  0.00     0.086 H 
ENDROOT
BRANCH   1  11
ATOM     11  C1  <0> d           2.427   3.960  -0.001  0.00  0.00    -0.051 C 
ATOM     12  H1  <0> d           2.725   4.158  -1.030  0.00  0.00     0.033 H 
ATOM     13  H2  <0> d           2.268   4.905   0.519  0.00  0.00     0.033 H 
ATOM     14  H3  <0> d           3.212   3.396   0.503  0.00  0.00     0.033 H 
ENDBRANCH   1  11
TORSDOF 1
