REMARK  1 active torsions:
REMARK  status: ('A' for Active; 'I' for Inactive)
REMARK       I    between atoms: N1_3  and  C4_5 
REMARK    1  A    between atoms: C4_5  and  C5_7 
ROOT
ATOM      1  C1  <0> d          -0.019   1.535   0.011  0.00  0.00    -0.035 C 
ATOM      2  C2  <0> d           1.519   1.456  -0.005  0.00  0.00    -0.001 C 
ATOM      3  N1  <0> d           1.344   0.117  -0.600  0.00  0.00    -0.352 N 
ATOM      4  C3  <0> d           0.002  -0.004   0.002  0.00  0.00    -0.001 C 
ATOM      5  C4  <0> d           2.105  -0.676  -1.380  0.00  0.00     0.224 C 
ATOM      6  O1  <0> d           3.204  -0.304  -1.734  0.00  0.00    -0.273 OA
ATOM      7  H1  <0> d          -0.427   1.964   0.926  0.00  0.00     0.037 H 
ATOM      8  H2  <0> d          -0.445   1.973  -0.892  0.00  0.00     0.037 H 
ATOM      9  H3  <0> d           1.989   2.177  -0.674  0.00  0.00     0.064 H 
ATOM     10  H4  <0> d           1.967   1.441   0.989  0.00  0.00     0.064 H 
ATOM     11  H5  <0> d           0.005  -0.449   0.997  0.00  0.00     0.064 H 
ATOM     12  H6  <0> d          -0.739  -0.450  -0.662  0.00  0.00     0.064 H 
ENDROOT
BRANCH   5  13
ATOM     13  C5  <0> d           1.590  -2.025  -1.812  0.00  0.00     0.036 C 
ATOM     14  C8  <0> d           2.575  -2.807  -2.697  0.00  0.00     0.002 C 
ATOM     15  C7  <0> d           2.169  -4.039  -1.912  0.00  0.00     0.128 C 
ATOM     16  H10 <0> d           2.287  -2.843  -3.747  0.00  0.00     0.045 H 
ATOM     17  H11 <0> d           3.617  -2.520  -2.552  0.00  0.00     0.045 H 
ATOM     18  C6  <0> d           1.793  -3.129  -0.760  0.00  0.00     0.002 C 
ATOM     19  O2  <0> d           2.153  -5.229  -2.116  0.00  0.00    -0.298 OA
ATOM     20  H8  <0> d           2.615  -2.932  -0.071  0.00  0.00     0.045 H 
ATOM     21  H9  <0> d           0.874  -3.423  -0.252  0.00  0.00     0.045 H 
ATOM     22  H7  <0> d           0.578  -1.983  -2.215  0.00  0.00     0.055 H 
ENDBRANCH   5  13
TORSDOF 1
