REMARK  1 active torsions:
REMARK  status: ('A' for Active; 'I' for Inactive)
REMARK    1  A    between atoms: C6_9  and  N4_10 
ROOT
ATOM      1  C1  <0> d          -0.013   1.076   0.008  0.00  0.00    -0.053 A 
ATOM      2  C2  <0> d          -1.198   1.744   0.017  0.00  0.00    -0.035 A 
ATOM      3  C3  <0> d          -1.197   3.151   0.030  0.00  0.00     0.151 A 
ATOM      4  N1  <0> d          -2.172   4.055   0.044  0.00  0.00    -0.221 NA
ATOM      5  C4  <0> d          -1.651   5.273   0.046  0.00  0.00     0.108 A 
ATOM      6  N2  <0> d          -0.341   5.192   0.033  0.00  0.00    -0.159 NA
ATOM      7  N3  <0> d          -0.012   3.829   0.022  0.00  0.00    -0.224 N 
ATOM      8  C5  <0> d           1.172   3.158   0.007  0.00  0.00     0.031 A 
ATOM      9  C6  <0> d           1.194   1.800   0.000  0.00  0.00     0.043 A 
ATOM     10  H1  <0> d           0.002  -0.004   0.002  0.00  0.00     0.087 H 
ATOM     11  H2  <0> d          -2.131   1.200   0.019  0.00  0.00     0.089 H 
ATOM     12  H3  <0> d          -2.218   6.192   0.056  0.00  0.00     0.149 H 
ATOM     13  H4  <0> d           2.101   3.709   0.001  0.00  0.00     0.118 H 
ENDROOT
BRANCH   9  14
ATOM     14  N4  <0> d           2.419   1.121  -0.015  0.00  0.00    -0.398 N 
ATOM     15  H5  <0> d           2.435   0.151  -0.020  0.00  0.00     0.156 HD
ATOM     16  H6  <0> d           3.250   1.619  -0.020  0.00  0.00     0.156 HD
ENDBRANCH   9  14
TORSDOF 1
