REMARK  1 active torsions:
REMARK  status: ('A' for Active; 'I' for Inactive)
REMARK    1  A    between atoms: C6_6  and  N1_7 
ROOT
ATOM      1  C1  <0> d           1.169   2.092   0.002  0.00  0.00    -0.055 A 
ATOM      2  C2  <0> d          -0.017   1.384   0.010  0.00  0.00    -0.048 A 
ATOM      3  C3  <0> d           0.002  -0.004   0.002  0.00  0.00     0.080 A 
ATOM      4  C4  <0> d           1.212  -0.680  -0.016  0.00  0.00     0.001 A 
ATOM      5  C5  <0> d           2.399   0.027  -0.022  0.00  0.00    -0.047 A 
ATOM      6  C6  <0> d           2.381   1.415  -0.013  0.00  0.00     0.026 A 
ATOM      7  C7  <0> d           1.244  -2.188  -0.030  0.00  0.00     0.048 C 
ATOM      8  O1  <0> d          -0.038  -2.692   0.356  0.00  0.00    -0.362 OA
ATOM      9  C8  <0> d          -1.120  -2.072  -0.350  0.00  0.00     0.109 C 
ATOM     10  O2  <0> d          -1.173  -0.691   0.018  0.00  0.00    -0.326 OA
ATOM     11  H1  <0> d           1.153   3.172   0.008  0.00  0.00     0.087 H 
ATOM     12  H2  <0> d          -0.960   1.910   0.017  0.00  0.00     0.087 H 
ATOM     13  H3  <0> d           3.341  -0.500  -0.035  0.00  0.00     0.088 H 
ATOM     14  H6  <0> d           1.485  -2.538  -1.033  0.00  0.00     0.082 H 
ATOM     15  H7  <0> d           2.000  -2.542   0.671  0.00  0.00     0.082 H 
ATOM     16  H8  <0> d          -0.953  -2.158  -1.424  0.00  0.00     0.118 H 
ATOM     17  H9  <0> d          -2.058  -2.560  -0.085  0.00  0.00     0.118 H 
ENDROOT
BRANCH   6  18
ATOM     18  N1  <0> d           3.583   2.132  -0.019  0.00  0.00    -0.399 N 
ATOM     19  H4  <0> d           4.429   1.659  -0.030  0.00  0.00     0.156 HD
ATOM     20  H5  <0> d           3.570   3.102  -0.012  0.00  0.00     0.156 HD
ENDBRANCH   6  18
TORSDOF 1
