REMARK  5 active torsions:
REMARK  status: ('A' for Active; 'I' for Inactive)
REMARK    1  A    between atoms: C1_1  and  C2_2 
REMARK    2  A    between atoms: C2_2  and  C3_3 
REMARK    3  A    between atoms: C6_6  and  C8_9 
REMARK    4  A    between atoms: C8_9  and  C9_10 
REMARK    5  A    between atoms: C9_10  and  O1_11 
ROOT
ATOM      1  C3  <0> d          -1.988   2.481   3.474  0.00  0.00    -0.041 A 
ATOM      2  C4  <0> d          -1.775   1.117   3.340  0.00  0.00    -0.074 A 
ATOM      3  C5  <0> d          -1.133   0.659   2.200  0.00  0.00    -0.059 A 
ATOM      4  C6  <0> d          -0.718   1.572   1.248  0.00  0.00     0.036 A 
ATOM      5  N1  <0> d          -0.938   2.862   1.409  0.00  0.00    -0.265 NA
ATOM      6  C7  <0> d          -1.551   3.333   2.478  0.00  0.00     0.009 A 
ATOM      7  H6  <0> d          -2.106   0.428   4.103  0.00  0.00     0.084 H 
ATOM      8  H7  <0> d          -0.954  -0.396   2.060  0.00  0.00     0.086 H 
ATOM      9  H8  <0> d          -1.713   4.396   2.575  0.00  0.00     0.115 H 
ENDROOT
BRANCH   4  10
ATOM     10  C8  <0> d          -0.013   1.086   0.008  0.00  0.00    -0.005 C 
ATOM     11  H9  <0> d           0.002  -0.004   0.002  0.00  0.00     0.045 H 
ATOM     12  H10 <0> d           1.010   1.463   0.000  0.00  0.00     0.045 H 
BRANCH  10  13
ATOM     13  C9  <0> d          -0.753   1.593  -1.232  0.00  0.00     0.022 C 
ATOM     14  H11 <0> d          -1.775   1.215  -1.224  0.00  0.00     0.074 H 
ATOM     15  H12 <0> d          -0.767   2.683  -1.226  0.00  0.00     0.074 H 
BRANCH  13  16
ATOM     16  O1  <0> d          -0.084   1.132  -2.407  0.00  0.00    -0.400 OA
ATOM     17  H13 <0> d          -0.499   1.416  -3.233  0.00  0.00     0.209 HD
ENDBRANCH  13  16
ENDBRANCH  10  13
ENDBRANCH   4  10
BRANCH   1  18
ATOM     18  C2  <0> d          -2.687   3.028   4.693  0.00  0.00    -0.043 C 
ATOM     19  H4  <0> d          -2.487   2.381   5.547  0.00  0.00     0.039 H 
ATOM     20  H5  <0> d          -2.319   4.032   4.903  0.00  0.00     0.039 H 
BRANCH  18  21
ATOM     21  C1  <0> d          -4.194   3.081   4.435  0.00  0.00    -0.073 C 
ATOM     22  H1  <0> d          -4.394   3.728   3.580  0.00  0.00     0.028 H 
ATOM     23  H2  <0> d          -4.563   2.077   4.224  0.00  0.00     0.028 H 
ATOM     24  H3  <0> d          -4.700   3.476   5.316  0.00  0.00     0.028 H 
ENDBRANCH  18  21
ENDBRANCH   1  18
TORSDOF 5
