REMARK  4 active torsions:
REMARK  status: ('A' for Active; 'I' for Inactive)
REMARK    1  A    between atoms: C1_1  and  N1_2 
REMARK       I    between atoms: N1_2  and  C2_3 
REMARK    2  A    between atoms: C2_3  and  C3_5 
REMARK    3  A    between atoms: C3_5  and  N2_6 
REMARK    4  A    between atoms: C5_8  and  N4_11 
ROOT
ATOM      1  C3  <0> d           2.475   1.468  -0.013  0.00  0.00     0.090 C 
ATOM      2  H5  <0> d           2.957   1.773   0.915  0.00  0.00     0.082 H 
ATOM      3  H6  <0> d           2.523   0.383  -0.109  0.00  0.00     0.082 H 
ENDROOT
BRANCH   1   4
ATOM      4  C2  <0> d           3.182   2.107  -1.181  0.00  0.00     0.237 C 
ATOM      5  N1  <0> d           4.489   1.857  -1.396  0.00  0.00    -0.364 N 
ATOM      6  H4  <0> d           4.974   1.266  -0.799  0.00  0.00     0.161 HD
ATOM      7  O1  <0> d           2.575   2.846  -1.926  0.00  0.00    -0.272 OA
BRANCH   5   8
ATOM      8  C1  <0> d           5.176   2.479  -2.530  0.00  0.00    -0.018 C 
ATOM      9  H1  <0> d           6.218   2.162  -2.542  0.00  0.00     0.056 H 
ATOM     10  H2  <0> d           4.693   2.174  -3.459  0.00  0.00     0.056 H 
ATOM     11  H3  <0> d           5.127   3.564  -2.435  0.00  0.00     0.056 H 
ENDBRANCH   5   8
ENDBRANCH   1   4
BRANCH   1  12
ATOM     12  N2  <0> d           1.073   1.894   0.002  0.00  0.00    -0.270 N 
ATOM     13  N3  <0> d           0.614   3.217   0.013  0.00  0.00    -0.182 NA
ATOM     14  C6  <0> d          -0.695   3.200   0.026  0.00  0.00     0.048 A 
ATOM     15  C5  <0> d          -1.118   1.863   0.017  0.00  0.00     0.062 A 
ATOM     16  H8  <0> d          -1.338   4.066   0.036  0.00  0.00     0.121 H 
ATOM     17  C4  <0> d          -0.013   1.076   0.008  0.00  0.00     0.025 A 
ATOM     18  H7  <0> d           0.002  -0.004   0.002  0.00  0.00     0.117 H 
BRANCH  15  19
ATOM     19  N4  <0> d          -2.453   1.416   0.019  0.00  0.00    -0.397 N 
ATOM     20  H9  <0> d          -2.647   0.466   0.015  0.00  0.00     0.156 HD
ATOM     21  H10 <0> d          -3.180   2.059   0.026  0.00  0.00     0.156 HD
ENDBRANCH  15  19
ENDBRANCH   1  12
TORSDOF 4
