REMARK  0 active torsions:
REMARK  status: ('A' for Active; 'I' for Inactive)
ROOT
ATOM      1  C1  <0> d          -0.058   1.165  -2.488  0.00  0.00    -0.064 C 
ATOM      2  C2  <0> d           1.379   1.691  -2.499  0.00  0.00    -0.063 C 
ATOM      3  C3  <0> d           2.128   1.158  -1.276  0.00  0.00    -0.040 C 
ATOM      4  C4  <0> d           1.424   1.629  -0.003  0.00  0.00     0.051 C 
ATOM      5  H1  <0> d           1.411   2.718   0.034  0.00  0.00     0.084 H 
ATOM      6  C5  <0> d          -0.013   1.086   0.008  0.00  0.00    -0.011 C 
ATOM      7  H2  <0> d           0.002  -0.004   0.002  0.00  0.00     0.046 H 
ATOM      8  C6  <0> d          -0.754   1.604  -1.226  0.00  0.00    -0.058 C 
ATOM      9  C7  <0> d          -0.698   1.592   1.282  0.00  0.00     0.022 C 
ATOM     10  N1  <0> d           0.184   1.383   2.428  0.00  0.00    -0.278 NA
ATOM     11  C8  <0> d           1.440   1.172   2.322  0.00  0.00     0.091 C 
ATOM     12  O1  <0> d           2.095   1.110   1.150  0.00  0.00    -0.339 OA
ATOM     13  H3  <0> d          -0.592   1.549  -3.357  0.00  0.00     0.033 H 
ATOM     14  H4  <0> d          -0.046   0.075  -2.522  0.00  0.00     0.033 H 
ATOM     15  H5  <0> d           1.366   2.780  -2.471  0.00  0.00     0.033 H 
ATOM     16  H6  <0> d           1.881   1.357  -3.407  0.00  0.00     0.033 H 
ATOM     17  H7  <0> d           3.152   1.534  -1.286  0.00  0.00     0.036 H 
ATOM     18  H8  <0> d           2.141   0.069  -1.303  0.00  0.00     0.036 H 
ATOM     19  H9  <0> d          -1.777   1.228  -1.219  0.00  0.00     0.033 H 
ATOM     20  H10 <0> d          -0.766   2.693  -1.212  0.00  0.00     0.033 H 
ATOM     21  H11 <0> d          -0.914   2.655   1.180  0.00  0.00     0.068 H 
ATOM     22  H12 <0> d          -1.628   1.046   1.435  0.00  0.00     0.068 H 
ATOM     23  H13 <0> d           2.010   1.036   3.230  0.00  0.00     0.154 H 
ENDROOT
TORSDOF 0
