REMARK  2 active torsions:
REMARK  status: ('A' for Active; 'I' for Inactive)
REMARK    1  A    between atoms: C1_1  and  C2_2 
REMARK    2  A    between atoms: C6_6  and  C8_8 
ROOT
ATOM      1  C2  <0> d          -0.718   1.572   1.248  0.00  0.00    -0.061 A 
ATOM      2  C3  <0> d           0.001   1.806   2.405  0.00  0.00    -0.077 A 
ATOM      3  C4  <0> d          -0.646   2.252   3.542  0.00  0.00    -0.082 A 
ATOM      4  C5  <0> d          -2.012   2.464   3.522  0.00  0.00    -0.077 A 
ATOM      5  C6  <0> d          -2.731   2.230   2.365  0.00  0.00    -0.061 A 
ATOM      6  C7  <0> d          -2.083   1.789   1.226  0.00  0.00    -0.071 A 
ATOM      7  H4  <0> d           1.068   1.640   2.421  0.00  0.00     0.084 H 
ATOM      8  H5  <0> d          -0.085   2.435   4.447  0.00  0.00     0.083 H 
ATOM      9  H6  <0> d          -2.518   2.813   4.411  0.00  0.00     0.084 H 
ATOM     10  H7  <0> d          -2.644   1.611   0.321  0.00  0.00     0.085 H 
ENDROOT
BRANCH   1  11
ATOM     11  C1  <0> d          -0.013   1.086   0.008  0.00  0.00    -0.051 C 
ATOM     12  H1  <0> d           0.002  -0.004   0.002  0.00  0.00     0.033 H 
ATOM     13  H2  <0> d           1.010   1.463   0.000  0.00  0.00     0.033 H 
ATOM     14  H3  <0> d          -0.540   1.447  -0.875  0.00  0.00     0.033 H 
ENDBRANCH   1  11
BRANCH   5  15
ATOM     15  C8  <0> d          -4.220   2.461   2.343  0.00  0.00    -0.051 C 
ATOM     16  H8  <0> d          -4.424   3.489   2.045  0.00  0.00     0.033 H 
ATOM     17  H9  <0> d          -4.683   1.778   1.632  0.00  0.00     0.033 H 
ATOM     18  H10 <0> d          -4.630   2.283   3.337  0.00  0.00     0.033 H 
ENDBRANCH   5  15
TORSDOF 2
