REMARK  5 active torsions:
REMARK  status: ('A' for Active; 'I' for Inactive)
REMARK    1  A    between atoms: C1_1  and  C2_2 
REMARK    2  A    between atoms: C2_2  and  C3_4 
REMARK    3  A    between atoms: C2_2  and  C5_8 
REMARK    4  A    between atoms: C3_4  and  C4_6 
REMARK    5  A    between atoms: C3_4  and  O1_7 
ROOT
ATOM      1  C2  <0> d           1.235   3.094   0.007  0.00  0.00     0.051 C 
ATOM      2  H1  <0> d           0.744   3.473   0.904  0.00  0.00     0.059 H 
ENDROOT
BRANCH   1   3
ATOM      3  C1  <0> d           0.522   3.639  -1.233  0.00  0.00    -0.061 C 
ATOM      4  H3  <0> d          -0.519   3.315  -1.224  0.00  0.00     0.028 H 
ATOM      5  H4  <0> d           0.564   4.728  -1.227  0.00  0.00     0.028 H 
ATOM      6  H5  <0> d           1.013   3.260  -2.130  0.00  0.00     0.028 H 
ENDBRANCH   1   3
BRANCH   1   7
ATOM      7  C3  <0> d           2.696   3.548  -0.005  0.00  0.00     0.044 C 
ATOM      8  H2  <0> d           3.187   3.170  -0.901  0.00  0.00     0.083 H 
BRANCH   7   9
ATOM      9  C4  <0> d           3.409   3.004   1.235  0.00  0.00    -0.052 C 
ATOM     10  H6  <0> d           4.450   3.327   1.227  0.00  0.00     0.030 H 
ATOM     11  H7  <0> d           2.918   3.382   2.132  0.00  0.00     0.030 H 
ATOM     12  H8  <0> d           3.367   1.915   1.230  0.00  0.00     0.030 H 
ENDBRANCH   7   9
BRANCH   7  13
ATOM     13  O1  <0> d           2.752   4.976   0.003  0.00  0.00    -0.395 OA
ATOM     14  H9  <0> d           3.650   5.335  -0.004  0.00  0.00     0.210 HD
ENDBRANCH   7  13
ENDBRANCH   1   7
BRANCH   1  15
ATOM     15  C5  <0> d           1.177   1.588  -0.001  0.00  0.00     0.179 C 
ATOM     16  O2  <0> d           2.199   0.944  -0.014  0.00  0.00    -0.648 OA
ATOM     17  O3  <0> d          -0.011   0.963   0.007  0.00  0.00    -0.648 OA
ENDBRANCH   1  15
TORSDOF 5
