REMARK  4 active torsions:
REMARK  status: ('A' for Active; 'I' for Inactive)
REMARK    1  A    between atoms: C1_1  and  C2_2 
REMARK    2  A    between atoms: C3_4  and  S1_8 
REMARK    3  A    between atoms: S1_8  and  C4_9 
REMARK    4  A    between atoms: C4_9  and  C5_10 
ROOT
ATOM      1  C2  <0> d           0.002  -0.004   0.002  0.00  0.00     0.145 A 
ATOM      2  N1  <0> d           0.007  -0.771  -1.089  0.00  0.00    -0.207 NA
ATOM      3  C3  <0> d           0.026  -2.040  -0.739  0.00  0.00     0.184 A 
ATOM      4  N2  <0> d           0.033  -2.097   0.611  0.00  0.00    -0.254 N 
ATOM      5  H1  <0> d           0.047  -2.897   1.159  0.00  0.00     0.191 HD
ATOM      6  N3  <0> d           0.023  -0.767   1.062  0.00  0.00    -0.158 NA
ENDROOT
BRANCH   3   7
ATOM      7  S1  <0> d           0.039  -3.419  -1.835  0.00  0.00    -0.087 SA
BRANCH   7   8
ATOM      8  C4  <0> d           0.021  -2.667  -3.486  0.00  0.00    -0.002 C 
ATOM      9  H5  <0> d          -0.877  -2.061  -3.599  0.00  0.00     0.055 H 
ATOM     10  H6  <0> d           0.902  -2.037  -3.608  0.00  0.00     0.055 H 
BRANCH   8  11
ATOM     11  C5  <0> d           0.030  -3.752  -4.532  0.00  0.00    -0.103 C 
ATOM     12  C6  <0> d          -1.000  -3.904  -5.327  0.00  0.00    -0.124 C 
ATOM     13  H8  <0> d          -0.993  -4.682  -6.077  0.00  0.00     0.066 H 
ATOM     14  H9  <0> d          -1.855  -3.252  -5.232  0.00  0.00     0.066 H 
ATOM     15  H7  <0> d           0.886  -4.404  -4.627  0.00  0.00     0.076 H 
ENDBRANCH   8  11
ENDBRANCH   7   8
ENDBRANCH   3   7
BRANCH   1  16
ATOM     16  C1  <0> d          -0.018   1.503   0.010  0.00  0.00    -0.018 C 
ATOM     17  H2  <0> d           1.004   1.880   0.003  0.00  0.00     0.038 H 
ATOM     18  H3  <0> d          -0.545   1.864  -0.873  0.00  0.00     0.038 H 
ATOM     19  H4  <0> d          -0.529   1.854   0.907  0.00  0.00     0.038 H 
ENDBRANCH   1  16
TORSDOF 4
