REMARK  2 active torsions:
REMARK  status: ('A' for Active; 'I' for Inactive)
REMARK    1  A    between atoms: N1_4  and  C5_6 
REMARK    2  A    between atoms: C9_10  and  O1_12 
ROOT
ATOM      1  C5  <0> d          -0.051   3.846   0.022  0.00  0.00     0.041 A 
ATOM      2  C6  <0> d          -1.242   3.131   0.030  0.00  0.00    -0.057 A 
ATOM      3  C7  <0> d          -1.219   1.750   0.017  0.00  0.00    -0.078 A 
ATOM      4  C8  <0> d          -0.013   1.076   0.008  0.00  0.00    -0.051 A 
ATOM      5  C9  <0> d           1.180   1.785   0.000  0.00  0.00     0.067 A 
ATOM      6  C10 <0> d           1.161   3.171   0.007  0.00  0.00    -0.025 A 
ATOM      7  H5  <0> d          -2.186   3.655   0.041  0.00  0.00     0.086 H 
ATOM      8  H6  <0> d          -2.146   1.196   0.019  0.00  0.00     0.083 H 
ATOM      9  H7  <0> d           0.002  -0.004   0.002  0.00  0.00     0.087 H 
ATOM     10  H8  <0> d           2.088   3.725   0.001  0.00  0.00     0.091 H 
ENDROOT
BRANCH   1  11
ATOM     11  N1  <0> d          -0.074   5.247   0.030  0.00  0.00    -0.333 N 
ATOM     12  C3  <0> d          -1.196   6.025   0.044  0.00  0.00    -0.015 A 
ATOM     13  C2  <0> d          -0.813   7.318   0.049  0.00  0.00    -0.066 A 
ATOM     14  H3  <0> d          -2.215   5.667   0.051  0.00  0.00     0.112 H 
ATOM     15  C1  <0> d           0.596   7.341   0.036  0.00  0.00    -0.066 A 
ATOM     16  H2  <0> d          -1.466   8.178   0.059  0.00  0.00     0.085 H 
ATOM     17  C4  <0> d           1.022   6.062   0.030  0.00  0.00    -0.015 A 
ATOM     18  H1  <0> d           1.221   8.223   0.036  0.00  0.00     0.085 H 
ATOM     19  H4  <0> d           2.052   5.737   0.024  0.00  0.00     0.112 H 
ENDBRANCH   1  11
BRANCH   5  20
ATOM     20  O1  <0> d           2.366   1.121  -0.014  0.00  0.00    -0.361 OA
ATOM     21  H9  <0> d           2.701   0.933  -0.901  0.00  0.00     0.217 HD
ENDBRANCH   5  20
TORSDOF 2
