REMARK  0 active torsions:
REMARK  status: ('A' for Active; 'I' for Inactive)
ROOT
ATOM      1  C1  <0> d          -0.755   1.594  -1.231  0.00  0.00    -0.061 C 
ATOM      2  C2  <0> d          -0.013   1.086   0.008  0.00  0.00    -0.040 C 
ATOM      3  C3  <0> d          -0.731   1.580   1.266  0.00  0.00     0.113 C 
ATOM      4  N1  <0> d          -0.770   3.048   1.264  0.00  0.00     0.101 N 
ATOM      5  C4  <0> d          -1.519   3.558   0.108  0.00  0.00     0.214 C 
ATOM      6  H1  <0> d          -2.546   3.171   0.165  0.00  0.00     0.112 H 
ATOM      7  C5  <0> d          -0.823   3.123  -1.184  0.00  0.00    -0.024 C 
ATOM      8  C6  <0> d          -1.569   5.028   0.166  0.00  0.00     0.095 C 
ATOM      9  N2  <0> d          -1.609   6.162   0.211  0.00  0.00    -0.195 NA
ATOM     10  H2  <0> d          -1.774   1.181  -1.246  0.00  0.00     0.033 H 
ATOM     11  H3  <0> d          -0.218   1.278  -2.138  0.00  0.00     0.033 H 
ATOM     12  H4  <0> d           0.003  -0.014   0.001  0.00  0.00     0.035 H 
ATOM     13  H5  <0> d           1.019   1.467  -0.001  0.00  0.00     0.035 H 
ATOM     14  H6  <0> d          -1.758   1.186   1.281  0.00  0.00     0.079 H 
ATOM     15  H7  <0> d          -0.191   1.230   2.158  0.00  0.00     0.079 H 
ATOM     16  H8  <0> d          -1.260   3.403   2.182  0.00  0.00     0.317 HD
ATOM     17  H9  <0> d           0.196   3.537  -1.212  0.00  0.00     0.037 H 
ATOM     18  H10 <0> d          -1.392   3.491  -2.051  0.00  0.00     0.037 H 
ENDROOT
TORSDOF 0
