REMARK  4 active torsions:
REMARK  status: ('A' for Active; 'I' for Inactive)
REMARK    1  A    between atoms: C1_1  and  C2_2 
REMARK    2  A    between atoms: C2_2  and  O1_3 
REMARK    3  A    between atoms: O1_3  and  C3_4 
REMARK    4  A    between atoms: C3_4  and  C4_6 
ROOT
ATOM      1  C3  <0> d           1.208   3.503   0.009  0.00  0.00     0.294 C 
ATOM      2  O2  <0> d           2.267   4.097   0.002  0.00  0.00    -0.259 OA
ENDROOT
BRANCH   1   3
ATOM      3  O1  <0> d           0.050   4.191   0.023  0.00  0.00    -0.318 OA
BRANCH   3   4
ATOM      4  C2  <0> d           0.145   5.640   0.030  0.00  0.00     0.026 C 
ATOM      5  H4  <0> d           0.677   5.977  -0.872  0.00  0.00     0.074 H 
ATOM      6  H5  <0> d           0.694   5.968   0.924  0.00  0.00     0.074 H 
BRANCH   4   7
ATOM      7  C1  <0> d          -1.262   6.242   0.046  0.00  0.00    -0.056 C 
ATOM      8  H1  <0> d          -1.190   7.340   0.051  0.00  0.00     0.030 H 
ATOM      9  H2  <0> d          -1.794   5.906   0.947  0.00  0.00     0.030 H 
ATOM     10  H3  <0> d          -1.811   5.915  -0.849  0.00  0.00     0.030 H 
ENDBRANCH   4   7
ENDBRANCH   3   4
ENDBRANCH   1   3
BRANCH   1  11
ATOM     11  C4  <0> d           1.189   2.023   0.002  0.00  0.00     0.060 A 
ATOM     12  C7  <0> d          -0.016   1.315   0.009  0.00  0.00     0.039 A 
ATOM     13  N2  <0> d           0.002  -0.004   0.002  0.00  0.00    -0.162 NA
ATOM     14  H8  <0> d          -0.957   1.845   0.017  0.00  0.00     0.119 H 
ATOM     15  N1  <0> d           1.095  -0.675  -0.012  0.00  0.00    -0.163 NA
ATOM     16  C6  <0> d           2.281  -0.099  -0.020  0.00  0.00     0.025 A 
ATOM     17  C5  <0> d           2.380   1.283  -0.014  0.00  0.00    -0.047 A 
ATOM     18  H7  <0> d           3.176  -0.704  -0.032  0.00  0.00     0.117 H 
ATOM     19  H6  <0> d           3.341   1.774  -0.021  0.00  0.00     0.087 H 
ENDBRANCH   1  11
TORSDOF 4
