REMARK  0 active torsions:
REMARK  status: ('A' for Active; 'I' for Inactive)
ROOT
ATOM      1  C1  <0> d           1.325   3.211  -0.166  0.00  0.00    -0.062 C 
ATOM      2  C2  <0> d           0.383   3.825   0.876  0.00  0.00    -0.053 C 
ATOM      3  C3  <0> d          -0.986   3.115   0.724  0.00  0.00     0.033 C 
ATOM      4  H1  <0> d          -1.815   3.633   1.207  0.00  0.00     0.055 H 
ATOM      5  C4  <0> d          -0.740   1.671   1.251  0.00  0.00    -0.028 C 
ATOM      6  C5  <0> d          -0.013   1.086   0.008  0.00  0.00     0.049 C 
ATOM      7  H2  <0> d           0.002  -0.004   0.002  0.00  0.00     0.084 H 
ATOM      8  C6  <0> d           1.397   1.694  -0.002  0.00  0.00    -0.040 C 
ATOM      9  O1  <0> d          -0.770   1.647  -1.112  0.00  0.00    -0.316 OA
ATOM     10  C7  <0> d          -1.159   2.922  -0.780  0.00  0.00     0.263 C 
ATOM     11  O2  <0> d          -1.569   3.759  -1.549  0.00  0.00    -0.265 OA
ATOM     12  H3  <0> d           2.322   3.634  -0.042  0.00  0.00     0.033 H 
ATOM     13  H4  <0> d           0.957   3.447  -1.165  0.00  0.00     0.033 H 
ATOM     14  H5  <0> d           0.778   3.660   1.878  0.00  0.00     0.034 H 
ATOM     15  H6  <0> d           0.270   4.894   0.691  0.00  0.00     0.034 H 
ATOM     16  H7  <0> d          -1.672   1.143   1.455  0.00  0.00     0.038 H 
ATOM     17  H8  <0> d          -0.090   1.683   2.126  0.00  0.00     0.038 H 
ATOM     18  H9  <0> d           1.898   1.457   0.937  0.00  0.00     0.036 H 
ATOM     19  H10 <0> d           1.966   1.270  -0.830  0.00  0.00     0.036 H 
ENDROOT
TORSDOF 0
