REMARK  1 active torsions:
REMARK  status: ('A' for Active; 'I' for Inactive)
REMARK    1  A    between atoms: C1_1  and  N1_2 
ROOT
ATOM      1  N1  <0> d          -0.698   1.558   1.213  0.00  0.00    -0.282 N 
ATOM      2  C2  <0> d          -2.029   1.804   1.304  0.00  0.00     0.022 A 
ATOM      3  C3  <0> d          -2.273   2.218   2.570  0.00  0.00     0.092 A 
ATOM      4  C4  <0> d          -1.015   2.213   3.220  0.00  0.00     0.179 A 
ATOM      5  N2  <0> d          -0.126   1.806   2.336  0.00  0.00    -0.160 NA
ATOM      6  C5  <0> d          -0.758   2.581   4.579  0.00  0.00     0.123 C 
ATOM      7  N3  <0> d          -0.553   2.873   5.658  0.00  0.00    -0.190 NA
ATOM      8 Cl1  <0> d          -3.806   2.667   3.252  0.00  0.00    -0.080 Cl
ATOM      9  H4  <0> d          -2.758   1.688   0.515  0.00  0.00     0.117 H 
ENDROOT
BRANCH   1  10
ATOM     10  C1  <0> d          -0.013   1.086   0.008  0.00  0.00     0.002 C 
ATOM     11  H1  <0> d           0.002  -0.004   0.002  0.00  0.00     0.059 H 
ATOM     12  H2  <0> d           1.010   1.463   0.000  0.00  0.00     0.059 H 
ATOM     13  H3  <0> d          -0.540   1.447  -0.875  0.00  0.00     0.059 H 
ENDBRANCH   1  10
TORSDOF 1
