REMARK  2 active torsions:
REMARK  status: ('A' for Active; 'I' for Inactive)
REMARK    1  A    between atoms: C2_2  and  C3_3 
REMARK    2  A    between atoms: C3_3  and  O3_13 
ROOT
ATOM      1  C3  <0> d           1.317  -0.740  -0.015  0.00  0.00     0.124 C 
ATOM      2  C4  <0> d           1.418  -1.640   1.222  0.00  0.00    -0.026 C 
ATOM      3  C5  <0> d           2.650  -2.542   1.092  0.00  0.00    -0.036 C 
ATOM      4  C6  <0> d           2.595  -3.252  -0.270  0.00  0.00     0.062 C 
ATOM      5  H1  <0> d           3.351  -4.031  -0.367  0.00  0.00     0.086 H 
ATOM      6  C7  <0> d           1.157  -3.789  -0.463  0.00  0.00     0.047 C 
ATOM      7  O1  <0> d           0.448  -2.723  -1.120  0.00  0.00    -0.355 OA
ATOM      8  C8  <0> d           1.401  -1.616  -1.274  0.00  0.00     0.164 C 
ATOM      9  H2  <0> d           1.208  -1.035  -2.176  0.00  0.00     0.134 H 
ATOM     10  O2  <0> d           2.709  -2.230  -1.291  0.00  0.00    -0.350 OA
ATOM     11  H6  <0> d           1.511  -1.022   2.115  0.00  0.00     0.038 H 
ATOM     12  H7  <0> d           0.522  -2.256   1.297  0.00  0.00     0.038 H 
ATOM     13  H8  <0> d           3.555  -1.937   1.153  0.00  0.00     0.037 H 
ATOM     14  H9  <0> d           2.647  -3.283   1.892  0.00  0.00     0.037 H 
ATOM     15  H10 <0> d           1.166  -4.680  -1.090  0.00  0.00     0.078 H 
ATOM     16  H11 <0> d           0.702  -4.008   0.502  0.00  0.00     0.078 H 
ENDROOT
BRANCH   1  17
ATOM     17  C2  <0> d           0.002  -0.004   0.002  0.00  0.00    -0.075 C 
ATOM     18  C1  <0> d          -0.016   1.306   0.009  0.00  0.00    -0.122 C 
ATOM     19  H3  <0> d           0.912   1.859   0.003  0.00  0.00     0.066 H 
ATOM     20  H4  <0> d          -0.958   1.833   0.017  0.00  0.00     0.066 H 
ATOM     21  H5  <0> d          -0.926  -0.557   0.008  0.00  0.00     0.080 H 
ENDBRANCH   1  17
BRANCH   1  22
ATOM     22  O3  <0> d           2.392   0.202  -0.013  0.00  0.00    -0.381 OA
ATOM     23  H12 <0> d           2.403   0.786   0.757  0.00  0.00     0.211 HD
ENDBRANCH   1  22
TORSDOF 2
