REMARK  1 active torsions:
REMARK  status: ('A' for Active; 'I' for Inactive)
REMARK    1  A    between atoms: C4_5  and  O1_11 
ROOT
ATOM      1  C1  <0> d          -0.658   1.776   1.265  0.00  0.00    -0.050 C 
ATOM      2  C2  <0> d          -0.013   1.086   0.008  0.00  0.00    -0.035 C 
ATOM      3  H1  <0> d           0.002  -0.004   0.002  0.00  0.00     0.046 H 
ATOM      4  C3  <0> d          -0.799   1.773  -1.153  0.00  0.00    -0.034 C 
ATOM      5  C4  <0> d          -0.992   3.259  -0.621  0.00  0.00     0.043 C 
ATOM      6  H2  <0> d          -2.050   3.495  -0.511  0.00  0.00     0.084 H 
ATOM      7  C5  <0> d          -0.290   3.223   0.774  0.00  0.00    -0.013 C 
ATOM      8  H3  <0> d          -0.522   4.044   1.453  0.00  0.00     0.050 H 
ATOM      9  C6  <0> d           1.193   3.016   0.440  0.00  0.00    -0.100 C 
ATOM     10  C7  <0> d           1.352   1.785  -0.001  0.00  0.00    -0.102 C 
ATOM     11  H4  <0> d          -1.735   1.615   1.323  0.00  0.00     0.035 H 
ATOM     12  H5  <0> d          -0.153   1.508   2.193  0.00  0.00     0.035 H 
ATOM     13  H6  <0> d          -0.210   1.771  -2.070  0.00  0.00     0.037 H 
ATOM     14  H7  <0> d          -1.758   1.279  -1.312  0.00  0.00     0.037 H 
ATOM     15  H8  <0> d           1.974   3.755   0.548  0.00  0.00     0.077 H 
ATOM     16  H9  <0> d           2.286   1.343  -0.316  0.00  0.00     0.076 H 
ENDROOT
BRANCH   5  17
ATOM     17  O1  <0> d          -0.354   4.206  -1.480  0.00  0.00    -0.395 OA
ATOM     18  H10 <0> d          -0.751   4.268  -2.360  0.00  0.00     0.210 HD
ENDBRANCH   5  17
TORSDOF 1
