REMARK  3 active torsions:
REMARK  status: ('A' for Active; 'I' for Inactive)
REMARK    1  A    between atoms: C1_1  and  N1_2 
REMARK    2  A    between atoms: N1_2  and  C2_3 
REMARK    3  A    between atoms: C6_7  and  O1_9 
ROOT
ATOM      1  C2  <0> d           0.626  -0.700   1.040  0.00  0.00     0.030 A 
ATOM      2  C3  <0> d           1.224  -0.003   2.084  0.00  0.00    -0.057 A 
ATOM      3  C4  <0> d           1.841  -0.692   3.110  0.00  0.00    -0.078 A 
ATOM      4  C5  <0> d           1.866  -2.074   3.102  0.00  0.00    -0.051 A 
ATOM      5  C6  <0> d           1.270  -2.774   2.063  0.00  0.00     0.067 A 
ATOM      6  C7  <0> d           0.646  -2.087   1.033  0.00  0.00    -0.026 A 
ATOM      7  H5  <0> d           1.206   1.076   2.092  0.00  0.00     0.086 H 
ATOM      8  H6  <0> d           2.305  -0.149   3.920  0.00  0.00     0.083 H 
ATOM      9  H7  <0> d           2.349  -2.609   3.906  0.00  0.00     0.087 H 
ATOM     10  H8  <0> d           0.178  -2.631   0.226  0.00  0.00     0.091 H 
ENDROOT
BRANCH   1  11
ATOM     11  N1  <0> d           0.002  -0.004   0.002  0.00  0.00    -0.394 N 
ATOM     12  H4  <0> d          -0.418  -0.491  -0.724  0.00  0.00     0.159 HD
BRANCH  11  13
ATOM     13  C1  <0> d          -0.018   1.461   0.010  0.00  0.00    -0.021 C 
ATOM     14  H1  <0> d           1.005   1.838   0.002  0.00  0.00     0.056 H 
ATOM     15  H2  <0> d          -0.545   1.822  -0.873  0.00  0.00     0.056 H 
ATOM     16  H3  <0> d          -0.528   1.812   0.907  0.00  0.00     0.056 H 
ENDBRANCH  11  13
ENDBRANCH   1  11
BRANCH   5  17
ATOM     17  O1  <0> d           1.296  -4.133   2.057  0.00  0.00    -0.361 OA
ATOM     18  H9  <0> d           0.541  -4.542   2.502  0.00  0.00     0.217 HD
ENDBRANCH   5  17
TORSDOF 3
