REMARK  6 active torsions:
REMARK  status: ('A' for Active; 'I' for Inactive)
REMARK    1  A    between atoms: C1_1  and  C2_2 
REMARK    2  A    between atoms: C4_6  and  C10_12 
REMARK    3  A    between atoms: C5_7  and  C6_8 
REMARK    4  A    between atoms: C6_8  and  C7_9 
REMARK    5  A    between atoms: C6_8  and  C8_10 
REMARK    6  A    between atoms: C6_8  and  C9_11 
ROOT
ATOM      1  C2  <0> d          -2.483  -0.339   1.603  0.00  0.00    -0.038 A 
ATOM      2  C3  <0> d          -3.731  -0.558   1.143  0.00  0.00    -0.017 A 
ATOM      3  N1  <0> d          -4.231   0.626   0.688  0.00  0.00    -0.368 N 
ATOM      4  H1  <0> d          -5.245   0.668   0.263  0.00  0.00     0.165 HD
ATOM      5  C4  <0> d          -3.291   1.597   0.868  0.00  0.00     0.012 A 
ATOM      6  C5  <0> d          -2.201   1.030   1.425  0.00  0.00    -0.021 A 
ATOM      7  H5  <0> d          -4.247  -1.507   1.136  0.00  0.00     0.112 H 
ENDROOT
BRANCH   6   8
ATOM      8  C6  <0> d          -0.921   1.733   1.796  0.00  0.00    -0.022 C 
BRANCH   8   9
ATOM      9  C7  <0> d           0.113   0.702   2.253  0.00  0.00    -0.066 C 
ATOM     10  H6  <0> d           1.048   1.215   2.523  0.00  0.00     0.028 H 
ATOM     11  H7  <0> d           0.308  -0.009   1.436  0.00  0.00     0.028 H 
ATOM     12  H8  <0> d          -0.273   0.158   3.128  0.00  0.00     0.028 H 
ENDBRANCH   8   9
BRANCH   8  13
ATOM     13  C8  <0> d          -1.192   2.721   2.932  0.00  0.00    -0.066 C 
ATOM     14  H9  <0> d          -0.258   3.235   3.202  0.00  0.00     0.028 H 
ATOM     15  H10 <0> d          -1.578   2.178   3.807  0.00  0.00     0.028 H 
ATOM     16  H11 <0> d          -1.936   3.462   2.603  0.00  0.00     0.028 H 
ENDBRANCH   8  13
BRANCH   8  17
ATOM     17  C9  <0> d          -0.384   2.489   0.579  0.00  0.00    -0.066 C 
ATOM     18  H12 <0> d           0.551   3.002   0.850  0.00  0.00     0.028 H 
ATOM     19  H13 <0> d          -1.127   3.230   0.251  0.00  0.00     0.028 H 
ATOM     20  H14 <0> d          -0.189   1.779  -0.237  0.00  0.00     0.028 H 
ENDBRANCH   8  17
ENDBRANCH   6   8
BRANCH   1  21
ATOM     21  C1  <0> d          -1.558  -1.370   2.198  0.00  0.00    -0.049 C 
ATOM     22  H2  <0> d          -2.057  -2.350   2.204  0.00  0.00     0.033 H 
ATOM     23  H3  <0> d          -1.302  -1.082   3.228  0.00  0.00     0.033 H 
ATOM     24  H4  <0> d          -0.640  -1.430   1.595  0.00  0.00     0.033 H 
ENDBRANCH   1  21
BRANCH   5  25
ATOM     25  C10 <0> d          -3.442   3.051   0.505  0.00  0.00    -0.037 C 
ATOM     26  H15 <0> d          -2.520   3.592   0.766  0.00  0.00     0.035 H 
ATOM     27  H16 <0> d          -4.289   3.482   1.058  0.00  0.00     0.035 H 
ATOM     28  H17 <0> d          -3.625   3.142  -0.576  0.00  0.00     0.035 H 
ENDBRANCH   5  25
TORSDOF 6
