REMARK  1 active torsions:
REMARK  status: ('A' for Active; 'I' for Inactive)
REMARK    1  A    between atoms: C1_1  and  C2_2 
ROOT
ATOM      1  C2  <0> d           0.002  -0.004   0.002  0.00  0.00     0.032 A 
ATOM      2  C3  <0> d          -1.186  -0.704   0.004  0.00  0.00     0.103 A 
ATOM      3  C4  <0> d          -1.141  -2.170  -0.004  0.00  0.00     0.135 A 
ATOM      4  C5  <0> d           0.094  -2.785  -0.013  0.00  0.00     0.019 A 
ATOM      5  C6  <0> d           1.252  -1.997  -0.015  0.00  0.00     0.248 A 
ATOM      6  N1  <0> d           1.181  -0.656  -0.013  0.00  0.00    -0.326 N 
ATOM      7  O1  <0> d           2.345  -2.539  -0.023  0.00  0.00    -0.268 OA
ATOM      8  O2  <0> d          -2.281  -2.900  -0.002  0.00  0.00    -0.190 OA
ATOM      9  C7  <0> d          -2.440  -0.013   0.014  0.00  0.00     0.104 C 
ATOM     10  N2  <0> d          -3.434   0.536   0.022  0.00  0.00    -0.191 NA
ATOM     11  H4  <0> d           0.168  -3.863  -0.019  0.00  0.00     0.096 H 
ATOM     12  H5  <0> d           2.003  -0.142  -0.018  0.00  0.00     0.169 HD
ENDROOT
BRANCH   1  13
ATOM     13  C1  <0> d          -0.018   1.503   0.010  0.00  0.00    -0.036 C 
ATOM     14  H1  <0> d           1.004   1.880   0.003  0.00  0.00     0.035 H 
ATOM     15  H2  <0> d          -0.545   1.864  -0.873  0.00  0.00     0.035 H 
ATOM     16  H3  <0> d          -0.529   1.854   0.907  0.00  0.00     0.035 H 
ENDBRANCH   1  13
TORSDOF 1
