REMARK  3 active torsions:
REMARK  status: ('A' for Active; 'I' for Inactive)
REMARK    1  A    between atoms: C1_1  and  C2_2 
REMARK    2  A    between atoms: C3_3  and  N4_10 
REMARK    3  A    between atoms: C4_5  and  N3_9 
ROOT
ATOM      1  C2  <0> d          -0.718   1.572   1.248  0.00  0.00     0.025 A 
ATOM      2  C3  <0> d          -0.008   1.813   2.425  0.00  0.00     0.149 A 
ATOM      3  N1  <0> d          -0.664   2.242   3.499  0.00  0.00    -0.045 NA
ATOM      4  C4  <0> d          -1.974   2.438   3.456  0.00  0.00     0.723 A 
ATOM      5  N2  <0> d          -2.674   2.218   2.353  0.00  0.00    -0.050 NA
ATOM      6  C5  <0> d          -2.083   1.795   1.244  0.00  0.00     0.154 A 
ATOM      7 Cl1  <0> d          -3.013   1.517  -0.195  0.00  0.00    -0.061 Cl
ENDROOT
BRANCH   1   8
ATOM      8  C1  <0> d          -0.013   1.086   0.008  0.00  0.00    -0.045 C 
ATOM      9  H1  <0> d           1.061   0.972   0.218  0.00  0.00     0.033 H 
ATOM     10  H2  <0> d          -0.153   1.815  -0.803  0.00  0.00     0.033 H 
ATOM     11  H3  <0> d          -0.432   0.115  -0.295  0.00  0.00     0.033 H 
ENDBRANCH   1   8
BRANCH   2  12
ATOM     12  N4  <0> d           1.362   1.609   2.474  0.00  0.00    -0.383 N 
ATOM     13  H6  <0> d           1.913   1.802   3.406  0.00  0.00     0.157 HD
ATOM     14  H7  <0> d           1.897   1.254   1.581  0.00  0.00     0.157 HD
ENDBRANCH   2  12
BRANCH   4  15
ATOM     15  N3  <0> d          -2.626   2.885   4.591  0.00  0.00    -0.231 N 
ATOM     16  H4  <0> d          -3.713   3.053   4.571  0.00  0.00     0.174 HD
ATOM     17  H5  <0> d          -2.058   3.072   5.514  0.00  0.00     0.174 HD
ENDBRANCH   4  15
TORSDOF 3
