REMARK  4 active torsions:
REMARK  status: ('A' for Active; 'I' for Inactive)
REMARK    1  A    between atoms: C1_1  and  C2_2 
REMARK    2  A    between atoms: C2_2  and  C3_4 
REMARK    3  A    between atoms: C2_2  and  O2_11 
REMARK    4  A    between atoms: C6_7  and  O1_10 
ROOT
ATOM      1  C3  <0> d           1.176   1.783   0.000  0.00  0.00    -0.030 A 
ATOM      2  C4  <0> d          -0.013   1.076   0.008  0.00  0.00    -0.072 A 
ATOM      3  C5  <0> d          -1.218   1.750   0.017  0.00  0.00    -0.050 A 
ATOM      4  C6  <0> d          -1.237   3.137   0.031  0.00  0.00     0.065 A 
ATOM      5  C7  <0> d          -0.043   3.844   0.024  0.00  0.00    -0.050 A 
ATOM      6  C8  <0> d           1.160   3.165   0.008  0.00  0.00    -0.072 A 
ATOM      7  H5  <0> d           0.002  -0.004   0.002  0.00  0.00     0.084 H 
ATOM      8  H6  <0> d          -2.146   1.197   0.018  0.00  0.00     0.087 H 
ATOM      9  H7  <0> d          -0.054   4.924   0.029  0.00  0.00     0.087 H 
ATOM     10  H8  <0> d           2.090   3.715   0.003  0.00  0.00     0.084 H 
ENDROOT
BRANCH   1  11
ATOM     11  C2  <0> d           2.490   1.045  -0.016  0.00  0.00     0.057 C 
ATOM     12  H1  <0> d           2.346   0.058  -0.454  0.00  0.00     0.089 H 
BRANCH  11  13
ATOM     13  C1  <0> d           3.010   0.897   1.415  0.00  0.00    -0.049 C 
ATOM     14  H2  <0> d           2.287   0.338   2.009  0.00  0.00     0.031 H 
ATOM     15  H3  <0> d           3.960   0.364   1.403  0.00  0.00     0.031 H 
ATOM     16  H4  <0> d           3.153   1.885   1.853  0.00  0.00     0.031 H 
ENDBRANCH  11  13
BRANCH  11  17
ATOM     17  O2  <0> d           3.438   1.779  -0.794  0.00  0.00    -0.391 OA
ATOM     18  H10 <0> d           4.309   1.362  -0.848  0.00  0.00     0.210 HD
ENDBRANCH  11  17
ENDBRANCH   1  11
BRANCH   4  19
ATOM     19  O1  <0> d          -2.422   3.802   0.045  0.00  0.00    -0.361 OA
ATOM     20  H9  <0> d          -2.773   3.999  -0.834  0.00  0.00     0.217 HD
ENDBRANCH   4  19
TORSDOF 4
