REMARK  1 active torsions:
REMARK  status: ('A' for Active; 'I' for Inactive)
REMARK    1  A    between atoms: C1_1  and  C2_2 
ROOT
ATOM      1  C2  <0> d          -1.201   1.740   0.017  0.00  0.00    -0.008 A 
ATOM      2  C3  <0> d          -0.013   1.076   0.008  0.00  0.00    -0.018 A 
ATOM      3  C4  <0> d           1.194   1.793   0.000  0.00  0.00     0.221 A 
ATOM      4  N1  <0> d           1.194   3.106   0.007  0.00  0.00    -0.120 NA
ATOM      5  N2  <0> d          -0.010   3.814   0.022  0.00  0.00    -0.128 N 
ATOM      6  C5  <0> d          -1.202   3.145   0.029  0.00  0.00     0.178 A 
ATOM      7  N3  <0> d          -2.169   4.056   0.043  0.00  0.00    -0.218 NA
ATOM      8  C6  <0> d          -1.640   5.269   0.044  0.00  0.00     0.110 A 
ATOM      9  N4  <0> d          -0.328   5.179   0.032  0.00  0.00    -0.141 NA
ATOM     10  O1  <0> d           2.374   1.123  -0.014  0.00  0.00    -0.168 OA
ATOM     11  H4  <0> d           0.002  -0.004   0.002  0.00  0.00     0.091 H 
ATOM     12  H5  <0> d          -2.200   6.192   0.054  0.00  0.00     0.149 H 
ENDROOT
BRANCH   1  13
ATOM     13  C1  <0> d          -2.501   0.977   0.019  0.00  0.00    -0.047 C 
ATOM     14  H1  <0> d          -2.292  -0.103   0.008  0.00  0.00     0.033 H 
ATOM     15  H2  <0> d          -3.085   1.246  -0.873  0.00  0.00     0.033 H 
ATOM     16  H3  <0> d          -3.073   1.230   0.923  0.00  0.00     0.033 H 
ENDBRANCH   1  13
TORSDOF 1
