REMARK  2 active torsions:
REMARK  status: ('A' for Active; 'I' for Inactive)
REMARK    1  A    between atoms: C1_1  and  C2_2 
REMARK    2  A    between atoms: C7_7  and  C8_9 
ROOT
ATOM      1  C2  <0> d          -0.992  -2.241  -0.082  0.00  0.00    -0.069 C 
ATOM      2  C3  <0> d          -1.573  -3.009  -0.953  0.00  0.00    -0.097 C 
ATOM      3  C4  <0> d          -2.742  -2.564  -1.778  0.00  0.00    -0.035 C 
ATOM      4  C5  <0> d          -2.836  -1.069  -1.823  0.00  0.00    -0.102 C 
ATOM      5  C6  <0> d          -2.256  -0.300  -0.952  0.00  0.00    -0.089 C 
ATOM      6  C7  <0> d          -1.435  -0.834   0.183  0.00  0.00     0.068 C 
ATOM      7  H1  <0> d          -2.031  -0.814   1.095  0.00  0.00     0.070 H 
ATOM      8  H5  <0> d          -1.196  -4.012  -1.089  0.00  0.00     0.077 H 
ATOM      9  H6  <0> d          -3.658  -2.967  -1.345  0.00  0.00     0.044 H 
ATOM     10  H7  <0> d          -2.629  -2.946  -2.792  0.00  0.00     0.044 H 
ATOM     11  H8  <0> d          -3.411  -0.611  -2.614  0.00  0.00     0.076 H 
ATOM     12  H9  <0> d          -2.368   0.769  -1.050  0.00  0.00     0.078 H 
ENDROOT
BRANCH   1  13
ATOM     13  C1  <0> d           0.178  -2.788   0.695  0.00  0.00    -0.054 C 
ATOM     14  H2  <0> d           0.270  -2.250   1.638  0.00  0.00     0.033 H 
ATOM     15  H3  <0> d           0.018  -3.847   0.894  0.00  0.00     0.033 H 
ATOM     16  H4  <0> d           1.091  -2.661   0.113  0.00  0.00     0.033 H 
ENDBRANCH   1  13
BRANCH   6  17
ATOM     17  C8  <0> d          -0.221   0.040   0.368  0.00  0.00     0.185 C 
ATOM     18  O1  <0> d           0.758  -0.134  -0.318  0.00  0.00    -0.647 OA
ATOM     19  O2  <0> d          -0.227   1.010   1.295  0.00  0.00    -0.647 OA
ENDBRANCH   6  17
TORSDOF 2
