REMARK  7 active torsions:
REMARK  status: ('A' for Active; 'I' for Inactive)
REMARK    1  A    between atoms: C1_1  and  C2_2 
REMARK    2  A    between atoms: C2_2  and  C4_4 
REMARK    3  A    between atoms: C4_4  and  C5_6 
REMARK    4  A    between atoms: C4_4  and  O2_12 
REMARK    5  A    between atoms: C5_6  and  C6_8 
REMARK    6  A    between atoms: C5_6  and  O1_11 
REMARK    7  A    between atoms: C6_8  and  C8_10 
ROOT
ATOM      1  C4  <0> d          -0.086   1.053   2.529  0.00  0.00     0.084 C 
ATOM      2  H1  <0> d          -0.833   1.286   3.288  0.00  0.00     0.094 H 
ENDROOT
BRANCH   1   3
ATOM      3  C2  <0> d          -0.620   1.420   1.168  0.00  0.00    -0.062 C 
ATOM      4  C3  <0> d          -1.778   2.024   1.060  0.00  0.00    -0.117 C 
ATOM      5  H6  <0> d          -2.349   2.258   1.946  0.00  0.00     0.067 H 
ATOM      6  H7  <0> d          -2.161   2.287   0.085  0.00  0.00     0.067 H 
BRANCH   3   7
ATOM      7  C1  <0> d           0.177   1.093  -0.068  0.00  0.00    -0.053 C 
ATOM      8  H3  <0> d           0.330   0.015  -0.127  0.00  0.00     0.033 H 
ATOM      9  H4  <0> d           1.144   1.595  -0.020  0.00  0.00     0.033 H 
ATOM     10  H5  <0> d          -0.365   1.432  -0.950  0.00  0.00     0.033 H 
ENDBRANCH   3   7
ENDBRANCH   1   3
BRANCH   1  11
ATOM     11  C5  <0> d           1.190   1.850   2.808  0.00  0.00     0.084 C 
ATOM     12  H2  <0> d           0.965   2.917   2.780  0.00  0.00     0.094 H 
BRANCH  11  13
ATOM     13  C6  <0> d           1.722   1.485   4.170  0.00  0.00    -0.062 C 
ATOM     14  C7  <0> d           2.851   0.829   4.278  0.00  0.00    -0.117 C 
ATOM     15  H8  <0> d           3.232   0.568   5.253  0.00  0.00     0.067 H 
ATOM     16  H9  <0> d           3.400   0.550   3.390  0.00  0.00     0.067 H 
BRANCH  13  17
ATOM     17  C8  <0> d           0.956   1.875   5.408  0.00  0.00    -0.053 C 
ATOM     18  H10 <0> d           0.323   1.044   5.720  0.00  0.00     0.033 H 
ATOM     19  H11 <0> d           1.656   2.119   6.207  0.00  0.00     0.033 H 
ATOM     20  H12 <0> d           0.334   2.744   5.192  0.00  0.00     0.033 H 
ENDBRANCH  13  17
ENDBRANCH  11  13
BRANCH  11  21
ATOM     21  O1  <0> d           2.170   1.543   1.815  0.00  0.00    -0.388 OA
ATOM     22  H13 <0> d           2.419   0.609   1.784  0.00  0.00     0.210 HD
ENDBRANCH  11  21
ENDBRANCH   1  11
BRANCH   1  23
ATOM     23  O2  <0> d           0.209  -0.345   2.564  0.00  0.00    -0.388 OA
ATOM     24  H14 <0> d           0.868  -0.624   1.913  0.00  0.00     0.210 HD
ENDBRANCH   1  23
TORSDOF 7
