REMARK  5 active torsions:
REMARK  status: ('A' for Active; 'I' for Inactive)
REMARK    1  A    between atoms: C1_1  and  C2_2 
REMARK    2  A    between atoms: C2_2  and  C3_3 
REMARK    3  A    between atoms: C2_2  and  C4_4 
REMARK    4  A    between atoms: C4_4  and  C5_5 
REMARK    5  A    between atoms: C5_5  and  C6_6 
ROOT
ATOM      1  C5  <0> d          -0.013   1.086   0.008  0.00  0.00    -0.053 C 
ATOM      2  H11 <0> d           0.002  -0.004   0.002  0.00  0.00     0.034 H 
ATOM      3  H12 <0> d           1.010   1.463   0.000  0.00  0.00     0.034 H 
ENDROOT
BRANCH   1   4
ATOM      4  C4  <0> d          -0.729   1.579   1.267  0.00  0.00    -0.062 C 
ATOM      5  H9  <0> d          -0.744   2.669   1.273  0.00  0.00     0.033 H 
ATOM      6  H10 <0> d          -1.751   1.202   1.275  0.00  0.00     0.033 H 
BRANCH   4   7
ATOM      7  C2  <0> d           0.011   1.072   2.506  0.00  0.00    -0.061 C 
ATOM      8  H5  <0> d           0.104  -0.013   2.456  0.00  0.00     0.038 H 
BRANCH   7   9
ATOM      9  C1  <0> d           1.405   1.701   2.561  0.00  0.00    -0.073 C 
ATOM     10  H2  <0> d           1.963   1.425   1.666  0.00  0.00     0.028 H 
ATOM     11  H3  <0> d           1.312   2.786   2.611  0.00  0.00     0.028 H 
ATOM     12  H4  <0> d           1.932   1.340   3.444  0.00  0.00     0.028 H 
ENDBRANCH   7   9
BRANCH   7  13
ATOM     13  C3  <0> d          -0.772   1.460   3.762  0.00  0.00    -0.073 C 
ATOM     14  H6  <0> d          -1.766   1.012   3.723  0.00  0.00     0.028 H 
ATOM     15  H7  <0> d          -0.245   1.099   4.645  0.00  0.00     0.028 H 
ATOM     16  H8  <0> d          -0.865   2.545   3.812  0.00  0.00     0.028 H 
ENDBRANCH   7  13
ENDBRANCH   4   7
ENDBRANCH   1   4
BRANCH   1  17
ATOM     17  C6  <0> d          -0.753   1.593  -1.232  0.00  0.00     0.032 C 
ATOM     18  H1  <0> d          -0.841   2.679  -1.202  0.00  0.00     0.055 H 
ATOM     19  C9  <0> d          -2.122   0.955  -1.325  0.00  0.00     0.263 C 
ATOM     20  O1  <0> d          -2.199   0.204  -2.433  0.00  0.00    -0.321 OA
ATOM     21  O2  <0> d          -3.012   1.101  -0.521  0.00  0.00    -0.265 OA
ATOM     22  C8  <0> d          -1.184   0.627  -3.391  0.00  0.00     0.030 C 
ATOM     23  C7  <0> d          -0.020   1.145  -2.516  0.00  0.00    -0.033 C 
ATOM     24  H15 <0> d          -0.858  -0.218  -3.997  0.00  0.00     0.075 H 
ATOM     25  H16 <0> d          -1.569   1.426  -4.025  0.00  0.00     0.075 H 
ATOM     26  H13 <0> d           0.479   1.989  -2.993  0.00  0.00     0.037 H 
ATOM     27  H14 <0> d           0.689   0.345  -2.300  0.00  0.00     0.037 H 
ENDBRANCH   1  17
TORSDOF 5
