REMARK  2 active torsions:
REMARK  status: ('A' for Active; 'I' for Inactive)
REMARK    1  A    between atoms: C2_2  and  C3_3 
REMARK    2  A    between atoms: C7_7  and  C9_9 
ROOT
ATOM      1  C1  <0> d          -3.471   0.422   0.021  0.00  0.00    -0.149 C 
ATOM      2  C2  <0> d          -2.462   1.023   0.019  0.00  0.00    -0.078 C 
ATOM      3  H1  <0> d          -4.416  -0.141   0.022  0.00  0.00     0.166 H 
ENDROOT
BRANCH   2   4
ATOM      4  C3  <0> d          -1.232   1.756   0.017  0.00  0.00     0.018 A 
ATOM      5  C8  <0> d          -1.250   3.148   0.030  0.00  0.00    -0.048 A 
ATOM      6  C7  <0> d          -0.048   3.854   0.023  0.00  0.00     0.042 A 
ATOM      7  H5  <0> d          -2.190   3.679   0.042  0.00  0.00     0.087 H 
ATOM      8  C6  <0> d           1.165   3.161   0.008  0.00  0.00    -0.066 A 
ATOM      9  C5  <0> d           1.175   1.781   0.000  0.00  0.00    -0.081 A 
ATOM     10  H4  <0> d           2.097   3.707   0.002  0.00  0.00     0.085 H 
ATOM     11  C4  <0> d          -0.013   1.076   0.008  0.00  0.00    -0.065 A 
ATOM     12  H3  <0> d           2.115   1.250  -0.012  0.00  0.00     0.083 H 
ATOM     13  H2  <0> d           0.002  -0.004   0.002  0.00  0.00     0.085 H 
BRANCH   6  14
ATOM     14  C9  <0> d          -0.056   5.332   0.031  0.00  0.00     0.209 C 
ATOM     15  O1  <0> d          -1.112   5.933   0.044  0.00  0.00    -0.644 OA
ATOM     16  O2  <0> d           1.106   6.012   0.024  0.00  0.00    -0.644 OA
ENDBRANCH   6  14
ENDBRANCH   2   4
TORSDOF 2
