REMARK  0 active torsions:
REMARK  status: ('A' for Active; 'I' for Inactive)
ROOT
ATOM      1  C1  <0> d           0.726   3.060   0.011  0.00  0.00    -0.038 A 
ATOM      2  C2  <0> d           1.095   1.765   0.001  0.00  0.00    -0.020 A 
ATOM      3  N1  <0> d          -0.011   0.966   0.007  0.00  0.00    -0.361 N 
ATOM      4  H1  <0> d           0.101  -0.128   0.005  0.00  0.00     0.165 HD
ATOM      5  C3  <0> d          -1.147   1.741   0.016  0.00  0.00     0.102 A 
ATOM      6  C4  <0> d          -0.733   3.089   0.025  0.00  0.00     0.089 A 
ATOM      7  N2  <0> d          -1.655   4.051   0.038  0.00  0.00    -0.240 NA
ATOM      8  C5  <0> d          -2.934   3.743   0.049  0.00  0.00     0.089 A 
ATOM      9  N3  <0> d          -3.359   2.492   0.046  0.00  0.00    -0.227 NA
ATOM     10  C6  <0> d          -2.512   1.474   0.033  0.00  0.00     0.156 A 
ATOM     11 Cl1  <0> d          -3.093  -0.162   0.029  0.00  0.00    -0.060 Cl
ATOM     12  H2  <0> d           1.385   3.915   0.010  0.00  0.00     0.089 H 
ATOM     13  H3  <0> d           2.115   1.412  -0.010  0.00  0.00     0.111 H 
ATOM     14  H4  <0> d          -3.662   4.540   0.059  0.00  0.00     0.146 H 
ENDROOT
TORSDOF 0
