REMARK  6 active torsions:
REMARK  status: ('A' for Active; 'I' for Inactive)
REMARK    1  A    between atoms: C1_1  and  C2_2 
REMARK    2  A    between atoms: C2_2  and  C3_3 
REMARK    3  A    between atoms: C3_3  and  C4_5 
REMARK    4  A    between atoms: C4_5  and  O2_6 
REMARK    5  A    between atoms: O2_6  and  C5_7 
REMARK    6  A    between atoms: C5_7  and  C6_9 
ROOT
ATOM      1  C4  <0> d           2.367   1.117  -0.015  0.00  0.00     0.083 C 
ATOM      2  H6  <0> d           2.406   0.536   0.799  0.00  0.00     0.087 H 
ATOM      3  H7  <0> d           2.392   0.493  -0.908  0.00  0.00     0.087 H 
ENDROOT
BRANCH   1   4
ATOM      4  C3  <0> d           3.550   2.051  -0.021  0.00  0.00     0.150 C 
ATOM      5  O1  <0> d           3.375   3.246  -0.013  0.00  0.00    -0.296 OA
BRANCH   4   6
ATOM      6  C2  <0> d           4.950   1.494  -0.037  0.00  0.00    -0.011 C 
ATOM      7  H4  <0> d           5.093   0.928   0.775  0.00  0.00     0.043 H 
ATOM      8  H5  <0> d           5.089   0.887  -0.932  0.00  0.00     0.043 H 
BRANCH   6   9
ATOM      9  C1  <0> d           5.957   2.646  -0.041  0.00  0.00    -0.070 C 
ATOM     10  H1  <0> d           5.818   3.253   0.854  0.00  0.00     0.028 H 
ATOM     11  H2  <0> d           6.970   2.243  -0.052  0.00  0.00     0.028 H 
ATOM     12  H3  <0> d           5.801   3.262  -0.926  0.00  0.00     0.028 H 
ENDBRANCH   6   9
ENDBRANCH   4   6
ENDBRANCH   1   4
BRANCH   1  13
ATOM     13  O2  <0> d           1.139   1.891   0.001  0.00  0.00    -0.314 OA
BRANCH  13  14
ATOM     14  C5  <0> d          -0.014   1.204   0.009  0.00  0.00     0.255 C 
ATOM     15  O3  <0> d           0.002  -0.004   0.002  0.00  0.00    -0.266 OA
BRANCH  14  16
ATOM     16  C6  <0> d          -1.329   1.940   0.019  0.00  0.00     0.004 C 
ATOM     17  H8  <0> d          -2.148   1.220   0.019  0.00  0.00     0.041 H 
ATOM     18  H9  <0> d          -1.391   2.561   0.913  0.00  0.00     0.041 H 
ATOM     19  H10 <0> d          -1.400   2.570  -0.867  0.00  0.00     0.041 H 
ENDBRANCH  14  16
ENDBRANCH  13  14
ENDBRANCH   1  13
TORSDOF 6
