REMARK  4 active torsions:
REMARK  status: ('A' for Active; 'I' for Inactive)
REMARK    1  A    between atoms: C1_1  and  C2_2 
REMARK       I    between atoms: C2_2  and  N1_4 
REMARK    2  A    between atoms: N1_4  and  C3_5 
REMARK    3  A    between atoms: N1_4  and  C4_6 
REMARK    4  A    between atoms: C4_6  and  C5_7 
ROOT
ATOM      1  C2  <0> d          -0.099   1.040   0.040  0.00  0.00     0.215 C 
ATOM      2  O1  <0> d           0.037  -0.164   0.015  0.00  0.00    -0.274 OA
ATOM      3  N1  <0> d           0.984   1.842   0.017  0.00  0.00    -0.347 N 
ENDROOT
BRANCH   3   4
ATOM      4  C3  <0> d           0.818   3.295  -0.067  0.00  0.00    -0.016 C 
ATOM      5  H4  <0> d           0.839   3.721   0.937  0.00  0.00     0.056 H 
ATOM      6  H5  <0> d           1.629   3.720  -0.658  0.00  0.00     0.056 H 
ATOM      7  H6  <0> d          -0.136   3.526  -0.539  0.00  0.00     0.056 H 
ENDBRANCH   3   4
BRANCH   3   8
ATOM      8  C4  <0> d           2.327   1.260   0.074  0.00  0.00     0.077 C 
ATOM      9  H7  <0> d           3.006   1.959   0.563  0.00  0.00     0.081 H 
ATOM     10  H8  <0> d           2.296   0.329   0.639  0.00  0.00     0.081 H 
BRANCH   8  11
ATOM     11  C5  <0> d           2.815   0.983  -1.325  0.00  0.00     0.191 C 
ATOM     12  O2  <0> d           2.112   1.244  -2.272  0.00  0.00    -0.647 OA
ATOM     13  O3  <0> d           4.029   0.445  -1.518  0.00  0.00    -0.647 OA
ENDBRANCH   8  11
ENDBRANCH   3   8
BRANCH   1  14
ATOM     14  C1  <0> d          -1.480   1.641   0.092  0.00  0.00    -0.003 C 
ATOM     15  H1  <0> d          -1.744   1.859   1.127  0.00  0.00     0.040 H 
ATOM     16  H2  <0> d          -1.497   2.564  -0.489  0.00  0.00     0.040 H 
ATOM     17  H3  <0> d          -2.199   0.936  -0.326  0.00  0.00     0.040 H 
ENDBRANCH   1  14
TORSDOF 4
