REMARK  3 active torsions:
REMARK  status: ('A' for Active; 'I' for Inactive)
REMARK    1  A    between atoms: C4_4  and  O2_10 
REMARK    2  A    between atoms: C5_6  and  C6_8 
REMARK    3  A    between atoms: C6_8  and  O1_9 
ROOT
ATOM      1  C1  <0> d          -0.019   1.542   0.011  0.00  0.00    -0.042 C 
ATOM      2  C2  <0> d           1.437   1.946  -0.001  0.00  0.00    -0.104 C 
ATOM      3  C3  <0> d           2.199   0.948  -0.358  0.00  0.00    -0.079 C 
ATOM      4  C4  <0> d           1.378  -0.288  -0.644  0.00  0.00     0.057 C 
ATOM      5  H1  <0> d           1.839  -1.164  -0.188  0.00  0.00     0.089 H 
ATOM      6  C5  <0> d           0.002  -0.004   0.002  0.00  0.00    -0.003 C 
ATOM      7  H2  <0> d          -0.043  -0.402   1.016  0.00  0.00     0.048 H 
ATOM      8  H3  <0> d          -0.508   1.910   0.912  0.00  0.00     0.039 H 
ATOM      9  H4  <0> d          -0.525   1.920  -0.878  0.00  0.00     0.039 H 
ATOM     10  H5  <0> d           1.800   2.931   0.252  0.00  0.00     0.076 H 
ATOM     11  H6  <0> d           3.275   0.999  -0.439  0.00  0.00     0.080 H 
ENDROOT
BRANCH   6  12
ATOM     12  C6  <0> d          -1.134  -0.564  -0.856  0.00  0.00     0.023 C 
ATOM     13  H7  <0> d          -1.092  -0.118  -1.850  0.00  0.00     0.074 H 
ATOM     14  H8  <0> d          -1.028  -1.646  -0.938  0.00  0.00     0.074 H 
BRANCH  12  15
ATOM     15  O1  <0> d          -2.389  -0.253  -0.247  0.00  0.00    -0.400 OA
ATOM     16  H9  <0> d          -3.156  -0.578  -0.738  0.00  0.00     0.209 HD
ENDBRANCH  12  15
ENDBRANCH   6  12
BRANCH   4  17
ATOM     17  O2  <0> d           1.238  -0.478  -2.054  0.00  0.00    -0.391 OA
ATOM     18  H10 <0> d           2.076  -0.611  -2.518  0.00  0.00     0.210 HD
ENDBRANCH   4  17
TORSDOF 3
