REMARK  2 active torsions:
REMARK  status: ('A' for Active; 'I' for Inactive)
REMARK    1  A    between atoms: C1_1  and  C2_2 
REMARK    2  A    between atoms: C2_2  and  C3_4 
ROOT
ATOM      1  C3  <0> d          -1.259  -0.755   0.010  0.00  0.00     0.049 A 
ATOM      2  C4  <0> d          -2.484  -0.076   0.019  0.00  0.00    -0.067 A 
ATOM      3  C5  <0> d          -3.663  -0.786   0.026  0.00  0.00    -0.079 A 
ATOM      4  C6  <0> d          -3.646  -2.173   0.025  0.00  0.00    -0.043 A 
ATOM      5  C7  <0> d          -2.446  -2.858   0.016  0.00  0.00     0.153 A 
ATOM      6  C8  <0> d          -1.245  -2.159   0.002  0.00  0.00     0.159 A 
ATOM      7  O2  <0> d          -0.066  -2.829  -0.013  0.00  0.00    -0.188 OA
ATOM      8  F1  <0> d          -2.440  -4.209   0.015  0.00  0.00    -0.203 F 
ATOM      9  H4  <0> d          -2.503   1.004   0.022  0.00  0.00     0.085 H 
ATOM     10  H5  <0> d          -4.606  -0.261   0.034  0.00  0.00     0.083 H 
ATOM     11  H6  <0> d          -4.576  -2.721   0.031  0.00  0.00     0.088 H 
ENDROOT
BRANCH   1  12
ATOM     12  C2  <0> d           0.002  -0.004   0.002  0.00  0.00     0.158 C 
ATOM     13  O1  <0> d           1.061  -0.596  -0.011  0.00  0.00    -0.293 OA
BRANCH  12  14
ATOM     14  C1  <0> d          -0.018   1.503   0.010  0.00  0.00    -0.017 C 
ATOM     15  H1  <0> d           1.004   1.880   0.003  0.00  0.00     0.038 H 
ATOM     16  H2  <0> d          -0.545   1.864  -0.873  0.00  0.00     0.038 H 
ATOM     17  H3  <0> d          -0.529   1.854   0.907  0.00  0.00     0.038 H 
ENDBRANCH  12  14
ENDBRANCH   1  12
TORSDOF 2
