REMARK  0 active torsions:
REMARK  status: ('A' for Active; 'I' for Inactive)
ROOT
ATOM      1  C1  <0> d          -0.015   1.290   0.009  0.00  0.00     0.087 A 
ATOM      2  N1  <0> d           1.278   1.751  -0.001  0.00  0.00    -0.300 N 
ATOM      3  H1  <0> d           1.549   2.682   0.002  0.00  0.00     0.171 HD
ATOM      4  C2  <0> d           2.107   0.688  -0.014  0.00  0.00     0.341 A 
ATOM      5  O1  <0> d           3.325   0.723  -0.026  0.00  0.00    -0.245 OA
ATOM      6  N2  <0> d           1.340  -0.422  -0.013  0.00  0.00    -0.227 N 
ATOM      7  H2  <0> d           1.655  -1.339  -0.021  0.00  0.00     0.194 HD
ATOM      8  N3  <0> d           0.002  -0.004   0.002  0.00  0.00    -0.166 NA
ATOM      9  H3  <0> d          -0.902   1.906   0.025  0.00  0.00     0.146 H 
ENDROOT
TORSDOF 0
