REMARK  4 active torsions:
REMARK  status: ('A' for Active; 'I' for Inactive)
REMARK    1  A    between atoms: C2_2  and  C3_3 
REMARK    2  A    between atoms: C3_3  and  O1_4 
REMARK    3  A    between atoms: O1_4  and  C4_5 
REMARK    4  A    between atoms: C4_5  and  C5_7 
ROOT
ATOM      1  C4  <0> d           1.176   2.076   0.002  0.00  0.00     0.317 C 
ATOM      2  O2  <0> d           2.205   1.428  -0.011  0.00  0.00    -0.257 OA
ENDROOT
BRANCH   1   3
ATOM      3  O1  <0> d          -0.018   1.448   0.010  0.00  0.00    -0.312 OA
BRANCH   3   4
ATOM      4  C3  <0> d           0.002  -0.004   0.002  0.00  0.00     0.044 C 
ATOM      5  H4  <0> d           0.512  -0.356  -0.895  0.00  0.00     0.081 H 
ATOM      6  H5  <0> d           0.529  -0.365   0.885  0.00  0.00     0.081 H 
BRANCH   4   7
ATOM      7  C2  <0> d          -1.412  -0.526   0.013  0.00  0.00    -0.089 C 
ATOM      8  C1  <0> d          -1.756  -1.501  -0.791  0.00  0.00    -0.123 C 
ATOM      9  H1  <0> d          -2.769  -1.875  -0.784  0.00  0.00     0.066 H 
ATOM     10  H2  <0> d          -1.027  -1.931  -1.462  0.00  0.00     0.066 H 
ATOM     11  H3  <0> d          -2.141  -0.096   0.683  0.00  0.00     0.078 H 
ENDBRANCH   4   7
ENDBRANCH   3   4
ENDBRANCH   1   3
BRANCH   1  12
ATOM     12  C5  <0> d           1.233   3.540   0.009  0.00  0.00     0.149 A 
ATOM     13  O3  <0> d           0.172   4.375   0.018  0.00  0.00    -0.317 OA
ATOM     14  C8  <0> d           0.605   5.642   0.026  0.00  0.00     0.020 A 
ATOM     15  C7  <0> d           1.957   5.641   0.013  0.00  0.00    -0.059 A 
ATOM     16  H8  <0> d          -0.023   6.521   0.035  0.00  0.00     0.123 H 
ATOM     17  C6  <0> d           2.368   4.300   0.003  0.00  0.00    -0.042 A 
ATOM     18  H7  <0> d           2.599   6.509   0.012  0.00  0.00     0.086 H 
ATOM     19  H6  <0> d           3.386   3.938  -0.009  0.00  0.00     0.088 H 
ENDBRANCH   1  12
TORSDOF 4
