REMARK  4 active torsions:
REMARK  status: ('A' for Active; 'I' for Inactive)
REMARK    1  A    between atoms: C1_1  and  O1_2 
REMARK    2  A    between atoms: O1_2  and  C2_3 
REMARK    3  A    between atoms: C2_3  and  C3_4 
REMARK    4  A    between atoms: C3_4  and  C4_6 
ROOT
ATOM      1  C4  <0> d          -0.018   1.467   0.010  0.00  0.00     0.012 A 
ATOM      2  C5  <0> d          -1.236   2.154   0.020  0.00  0.00    -0.069 A 
ATOM      3  C6  <0> d          -1.247   3.533   0.033  0.00  0.00    -0.082 A 
ATOM      4  C7  <0> d          -0.055   4.237   0.026  0.00  0.00    -0.083 A 
ATOM      5  C8  <0> d           1.154   3.565   0.010  0.00  0.00    -0.082 A 
ATOM      6  C9  <0> d           1.181   2.187   0.003  0.00  0.00    -0.069 A 
ATOM      7  H6  <0> d          -2.167   1.605   0.021  0.00  0.00     0.085 H 
ATOM      8  H7  <0> d          -2.187   4.064   0.045  0.00  0.00     0.083 H 
ATOM      9  H8  <0> d          -0.070   5.317   0.032  0.00  0.00     0.083 H 
ATOM     10  H9  <0> d           2.080   4.122   0.004  0.00  0.00     0.083 H 
ATOM     11  H10 <0> d           2.126   1.664  -0.010  0.00  0.00     0.085 H 
ENDROOT
BRANCH   1  12
ATOM     12  C3  <0> d           0.002  -0.004   0.002  0.00  0.00     0.182 C 
ATOM     13  O2  <0> d           1.060  -0.596  -0.011  0.00  0.00    -0.290 OA
BRANCH  12  14
ATOM     14  C2  <0> d          -1.293  -0.775   0.010  0.00  0.00     0.078 C 
ATOM     15  H4  <0> d          -1.812  -0.545   0.833  0.00  0.00     0.086 H 
ATOM     16  H5  <0> d          -1.876  -0.515  -0.873  0.00  0.00     0.086 H 
BRANCH  14  17
ATOM     17  O1  <0> d          -1.012  -2.176   0.000  0.00  0.00    -0.388 OA
BRANCH  17  18
ATOM     18  C1  <0> d          -2.179  -3.002   0.007  0.00  0.00     0.004 C 
ATOM     19  H1  <0> d          -2.781  -2.788  -0.876  0.00  0.00     0.066 H 
ATOM     20  H2  <0> d          -1.881  -4.051  -0.002  0.00  0.00     0.066 H 
ATOM     21  H3  <0> d          -2.764  -2.798   0.903  0.00  0.00     0.066 H 
ENDBRANCH  17  18
ENDBRANCH  14  17
ENDBRANCH  12  14
ENDBRANCH   1  12
TORSDOF 4
