REMARK  4 active torsions:
REMARK  status: ('A' for Active; 'I' for Inactive)
REMARK    1  A    between atoms: C1_1  and  C2_2 
REMARK    2  A    between atoms: C5_5  and  C6_7 
REMARK    3  A    between atoms: C6_7  and  O2_9 
REMARK    4  A    between atoms: O2_9  and  C7_10 
ROOT
ATOM      1  C2  <0> d           1.161   2.048   0.002  0.00  0.00    -0.020 A 
ATOM      2  C3  <0> d          -0.017   1.368   0.010  0.00  0.00    -0.069 A 
ATOM      3  C4  <0> d           0.002  -0.004   0.002  0.00  0.00    -0.059 A 
ATOM      4  C5  <0> d           1.246  -0.619  -0.013  0.00  0.00     0.080 A 
ATOM      5  S1  <0> d           2.348   0.784  -0.016  0.00  0.00    -0.089 SA
ATOM      6  H4  <0> d          -0.956   1.901   0.017  0.00  0.00     0.085 H 
ATOM      7  H5  <0> d          -0.911  -0.580   0.008  0.00  0.00     0.085 H 
ENDROOT
BRANCH   4   8
ATOM      8  C6  <0> d           1.569  -2.046  -0.024  0.00  0.00     0.299 C 
ATOM      9  O1  <0> d           0.676  -2.872  -0.020  0.00  0.00    -0.259 OA
BRANCH   8  10
ATOM     10  O2  <0> d           2.857  -2.446  -0.038  0.00  0.00    -0.322 OA
BRANCH  10  11
ATOM     11  C7  <0> d           3.104  -3.877  -0.048  0.00  0.00     0.013 C 
ATOM     12  H6  <0> d           4.188  -4.062  -0.060  0.00  0.00     0.067 H 
ATOM     13  H7  <0> d           2.647  -4.321  -0.945  0.00  0.00     0.067 H 
ATOM     14  H8  <0> d           2.664  -4.331   0.852  0.00  0.00     0.067 H 
ENDBRANCH  10  11
ENDBRANCH   8  10
ENDBRANCH   4   8
BRANCH   1  15
ATOM     15  C1  <0> d           1.380   3.539   0.007  0.00  0.00    -0.045 C 
ATOM     16  H1  <0> d           0.408   4.053   0.020  0.00  0.00     0.034 H 
ATOM     17  H2  <0> d           1.938   3.830  -0.895  0.00  0.00     0.034 H 
ATOM     18  H3  <0> d           1.956   3.821   0.901  0.00  0.00     0.034 H 
ENDBRANCH   1  15
TORSDOF 4
