REMARK  2 active torsions:
REMARK  status: ('A' for Active; 'I' for Inactive)
REMARK    1  A    between atoms: C1_1  and  O1_2 
REMARK    2  A    between atoms: O1_2  and  C2_3 
ROOT
ATOM      1  C2  <0> d           2.373   1.333  -0.013  0.00  0.00     0.163 A 
ATOM      2  C3  <0> d           1.190   2.061   0.002  0.00  0.00    -0.030 A 
ATOM      3  C4  <0> d          -0.017   1.385   0.010  0.00  0.00    -0.056 A 
ATOM      4  C5  <0> d           0.002  -0.004   0.002  0.00  0.00     0.051 A 
ATOM      5  C6  <0> d           1.216  -0.663  -0.013  0.00  0.00     0.026 A 
ATOM      6  N1  <0> d           2.351   0.011  -0.020  0.00  0.00    -0.235 NA
ATOM      7 Cl1  <0> d          -1.484  -0.902   0.012  0.00  0.00    -0.083 Cl
ATOM      8  H4  <0> d           1.213   3.141   0.007  0.00  0.00     0.090 H 
ATOM      9  H5  <0> d          -0.952   1.925   0.017  0.00  0.00     0.086 H 
ATOM     10  H6  <0> d           1.237  -1.743  -0.019  0.00  0.00     0.117 H 
ENDROOT
BRANCH   1  11
ATOM     11  O1  <0> d           3.563   1.985  -0.021  0.00  0.00    -0.339 OA
BRANCH  11  12
ATOM     12  C1  <0> d           4.744   1.180  -0.036  0.00  0.00     0.012 C 
ATOM     13  H1  <0> d           5.623   1.824  -0.041  0.00  0.00     0.067 H 
ATOM     14  H2  <0> d           4.763   0.546   0.850  0.00  0.00     0.067 H 
ATOM     15  H3  <0> d           4.746   0.555  -0.930  0.00  0.00     0.067 H 
ENDBRANCH  11  12
ENDBRANCH   1  11
TORSDOF 2
