REMARK  6 active torsions:
REMARK  status: ('A' for Active; 'I' for Inactive)
REMARK    1  A    between atoms: C1_1  and  C2_2 
REMARK       I    between atoms: C2_2  and  N1_4 
REMARK    2  A    between atoms: N1_4  and  C3_5 
REMARK    3  A    between atoms: C3_5  and  C4_6 
REMARK    4  A    between atoms: C4_6  and  C5_7 
REMARK    5  A    between atoms: C4_6  and  C6_8 
REMARK    6  A    between atoms: C4_6  and  C7_9 
ROOT
ATOM      1  C4  <0> d           3.571   2.193  -0.020  0.00  0.00    -0.035 C 
ENDROOT
BRANCH   1   2
ATOM      2  C3  <0> d           2.422   1.183  -0.015  0.00  0.00     0.001 C 
ATOM      3  H5  <0> d           2.497   0.553   0.871  0.00  0.00     0.065 H 
ATOM      4  H6  <0> d           2.480   0.562  -0.909  0.00  0.00     0.065 H 
BRANCH   2   5
ATOM      5  N1  <0> d           1.143   1.898   0.001  0.00  0.00    -0.361 N 
ATOM      6  C2  <0> d          -0.014   1.209   0.009  0.00  0.00     0.213 C 
ATOM      7  O1  <0> d           0.002  -0.004   0.002  0.00  0.00    -0.274 OA
ATOM      8  H4  <0> d           1.130   2.868   0.007  0.00  0.00     0.162 HD
BRANCH   6   9
ATOM      9  C1  <0> d          -1.330   1.944   0.019  0.00  0.00    -0.003 C 
ATOM     10  H1  <0> d          -1.642   2.116   1.049  0.00  0.00     0.040 H 
ATOM     11  H2  <0> d          -1.215   2.901  -0.490  0.00  0.00     0.040 H 
ATOM     12  H3  <0> d          -2.084   1.348  -0.495  0.00  0.00     0.040 H 
ENDBRANCH   6   9
ENDBRANCH   2   5
ENDBRANCH   1   2
BRANCH   1  13
ATOM     13  C5  <0> d           3.490   3.065   1.234  0.00  0.00    -0.068 C 
ATOM     14  H7  <0> d           3.565   2.434   2.120  0.00  0.00     0.028 H 
ATOM     15  H8  <0> d           4.309   3.784   1.231  0.00  0.00     0.028 H 
ATOM     16  H9  <0> d           2.539   3.597   1.246  0.00  0.00     0.028 H 
ENDBRANCH   1  13
BRANCH   1  17
ATOM     17  C6  <0> d           4.907   1.446  -0.037  0.00  0.00    -0.068 C 
ATOM     18  H10 <0> d           4.964   0.825  -0.931  0.00  0.00     0.028 H 
ATOM     19  H11 <0> d           5.725   2.166  -0.041  0.00  0.00     0.028 H 
ATOM     20  H12 <0> d           4.981   0.816   0.849  0.00  0.00     0.028 H 
ENDBRANCH   1  17
BRANCH   1  21
ATOM     21  C7  <0> d           3.466   3.078  -1.264  0.00  0.00    -0.068 C 
ATOM     22  H13 <0> d           2.515   3.610  -1.252  0.00  0.00     0.028 H 
ATOM     23  H14 <0> d           4.285   3.798  -1.268  0.00  0.00     0.028 H 
ATOM     24  H15 <0> d           3.524   2.457  -2.158  0.00  0.00     0.028 H 
ENDBRANCH   1  21
TORSDOF 6
