REMARK  8 active torsions:
REMARK  status: ('A' for Active; 'I' for Inactive)
REMARK    1  A    between atoms: C1_1  and  C2_2 
REMARK    2  A    between atoms: C2_2  and  C3_3 
REMARK    3  A    between atoms: C3_3  and  C4_4 
REMARK    4  A    between atoms: C4_4  and  O1_5 
REMARK    5  A    between atoms: O1_5  and  C5_6 
REMARK    6  A    between atoms: C5_6  and  C6_8 
REMARK    7  A    between atoms: C6_8  and  C7_10 
REMARK    8  A    between atoms: C6_8  and  O3_11 
ROOT
ATOM      1  C4  <0> d           3.570   1.837  -0.963  0.00  0.00     0.029 C 
ATOM      2  H9  <0> d           3.527   2.926  -0.941  0.00  0.00     0.075 H 
ATOM      3  H10 <0> d           4.069   1.475  -0.064  0.00  0.00     0.075 H 
ENDROOT
BRANCH   1   4
ATOM      4  C3  <0> d           4.352   1.383  -2.197  0.00  0.00    -0.045 C 
ATOM      5  H7  <0> d           4.395   0.294  -2.220  0.00  0.00     0.036 H 
ATOM      6  H8  <0> d           3.853   1.745  -3.097  0.00  0.00     0.036 H 
BRANCH   4   7
ATOM      7  C2  <0> d           5.772   1.949  -2.139  0.00  0.00    -0.067 C 
ATOM      8  H5  <0> d           5.728   3.038  -2.117  0.00  0.00     0.032 H 
ATOM      9  H6  <0> d           6.270   1.587  -1.240  0.00  0.00     0.032 H 
BRANCH   7  10
ATOM     10  C1  <0> d           6.553   1.495  -3.373  0.00  0.00    -0.076 C 
ATOM     11  H2  <0> d           7.565   1.898  -3.331  0.00  0.00     0.027 H 
ATOM     12  H3  <0> d           6.597   0.406  -3.395  0.00  0.00     0.027 H 
ATOM     13  H4  <0> d           6.055   1.857  -4.272  0.00  0.00     0.027 H 
ENDBRANCH   7  10
ENDBRANCH   4   7
ENDBRANCH   1   4
BRANCH   1  14
ATOM     14  O1  <0> d           2.222   1.300  -1.019  0.00  0.00    -0.319 OA
BRANCH  14  15
ATOM     15  C5  <0> d           1.401   1.607  -0.003  0.00  0.00     0.287 C 
ATOM     16  O2  <0> d           1.796   2.303   0.903  0.00  0.00    -0.262 OA
BRANCH  15  17
ATOM     17  C6  <0> d          -0.013   1.086   0.008  0.00  0.00     0.115 C 
ATOM     18  H1  <0> d           0.002  -0.004   0.002  0.00  0.00     0.098 H 
BRANCH  17  19
ATOM     19  C7  <0> d          -0.753   1.593  -1.232  0.00  0.00    -0.044 C 
ATOM     20  H11 <0> d          -0.242   1.241  -2.128  0.00  0.00     0.031 H 
ATOM     21  H12 <0> d          -1.775   1.215  -1.224  0.00  0.00     0.031 H 
ATOM     22  H13 <0> d          -0.767   2.683  -1.226  0.00  0.00     0.031 H 
ENDBRANCH  17  19
BRANCH  17  23
ATOM     23  O3  <0> d          -0.682   1.547   1.184  0.00  0.00    -0.386 OA
ATOM     24  H14 <0> d          -1.599   1.248   1.257  0.00  0.00     0.210 HD
ENDBRANCH  17  23
ENDBRANCH  15  17
ENDBRANCH  14  15
ENDBRANCH   1  14
TORSDOF 8
