REMARK  4 active torsions:
REMARK  status: ('A' for Active; 'I' for Inactive)
REMARK    1  A    between atoms: C1_1  and  C2_2 
REMARK    2  A    between atoms: C2_2  and  C6_8 
REMARK    3  A    between atoms: C4_4  and  C5_6 
REMARK    4  A    between atoms: C5_6  and  O1_7 
ROOT
ATOM      1  C2  <0> d           1.335   1.811  -0.001  0.00  0.00    -0.042 A 
ATOM      2  C3  <0> d           0.460   1.806  -1.256  0.00  0.00    -0.052 A 
ATOM      3  C4  <0> d          -0.013   1.086   0.008  0.00  0.00    -0.026 A 
ATOM      4  H1  <0> d           0.002  -0.004   0.002  0.00  0.00     0.044 H 
ATOM      5  H5  <0> d           0.786   1.189  -2.094  0.00  0.00     0.034 H 
ATOM      6  H6  <0> d          -0.042   2.736  -1.524  0.00  0.00     0.034 H 
ENDROOT
BRANCH   1   7
ATOM      7  C1  <0> d           1.438   3.120   0.783  0.00  0.00    -0.069 C 
ATOM      8  H2  <0> d           1.218   2.933   1.834  0.00  0.00     0.028 H 
ATOM      9  H3  <0> d           2.446   3.522   0.688  0.00  0.00     0.028 H 
ATOM     10  H4  <0> d           0.721   3.839   0.385  0.00  0.00     0.028 H 
ENDBRANCH   1   7
BRANCH   1  11
ATOM     11  C6  <0> d           2.600   0.950  -0.017  0.00  0.00    -0.069 C 
ATOM     12  H10 <0> d           2.603   0.325  -0.910  0.00  0.00     0.028 H 
ATOM     13  H11 <0> d           3.478   1.596  -0.022  0.00  0.00     0.028 H 
ATOM     14  H12 <0> d           2.619   0.317   0.870  0.00  0.00     0.028 H 
ENDBRANCH   1  11
BRANCH   3  15
ATOM     15  C5  <0> d          -1.154   1.726   0.801  0.00  0.00     0.021 C 
ATOM     16  H7  <0> d          -0.834   1.891   1.830  0.00  0.00     0.074 H 
ATOM     17  H8  <0> d          -1.422   2.680   0.346  0.00  0.00     0.074 H 
BRANCH  15  18
ATOM     18  O1  <0> d          -2.288   0.857   0.788  0.00  0.00    -0.400 OA
ATOM     19  H9  <0> d          -3.052   1.200   1.273  0.00  0.00     0.209 HD
ENDBRANCH  15  18
ENDBRANCH   3  15
TORSDOF 4
