REMARK  3 active torsions:
REMARK  status: ('A' for Active; 'I' for Inactive)
REMARK    1  A    between atoms: C1_1  and  C2_2 
REMARK    2  A    between atoms: C1_1  and  N1_5 
REMARK    3  A    between atoms: C2_2  and  O2_4 
ROOT
ATOM      1  C1  <0> d          -0.018   1.503   0.010  0.00  0.00     0.113 C 
ATOM      2  H1  <0> d          -0.545   1.864  -0.873  0.00  0.00     0.086 H 
ATOM      3  H2  <0> d          -0.529   1.854   0.907  0.00  0.00     0.086 H 
ENDROOT
BRANCH   1   4
ATOM      4  C2  <0> d           0.002  -0.004   0.002  0.00  0.00     0.162 C 
ATOM      5  O1  <0> d           1.056  -0.594  -0.011  0.00  0.00    -0.649 OA
BRANCH   4   6
ATOM      6  O2  <0> d          -1.151  -0.691   0.009  0.00  0.00    -0.775 OA
ATOM      7  H3  <0> d          -1.037  -1.651   0.003  0.00  0.00     0.167 HD
ENDBRANCH   4   6
ENDBRANCH   1   4
BRANCH   1   8
ATOM      8  N1  <0> d           1.356   2.010  -0.000  0.00  0.00    -0.156 N 
ATOM      9  N4  <0> d           2.066   2.280  -1.042  0.00  0.00    -0.044 NA
ATOM     10  N3  <0> d           3.222   2.708  -0.677  0.00  0.00    -0.080 NA
ATOM     11  C3  <0> d           3.303   2.719   0.653  0.00  0.00     0.337 A 
ATOM     12  N2  <0> d           2.152   2.288   1.123  0.00  0.00    -0.103 NA
ATOM     13  O3  <0> d           4.378   3.105   1.389  0.00  0.00    -0.144 OA
ENDBRANCH   1   8
TORSDOF 3
