REMARK  1 active torsions:
REMARK  status: ('A' for Active; 'I' for Inactive)
REMARK    1  A    between atoms: C2_2  and  C6_10 
ROOT
ATOM      1  C1  <0> d          -1.254   2.982   0.029  0.00  0.00    -0.014 A 
ATOM      2  C2  <0> d          -0.060   3.724   0.022  0.00  0.00     0.050 A 
ATOM      3  C3  <0> d           1.151   3.048   0.007  0.00  0.00    -0.001 A 
ATOM      4  C4  <0> d           1.152   1.644  -0.000  0.00  0.00     0.248 A 
ATOM      5  O1  <0> d           2.210   1.036  -0.013  0.00  0.00    -0.268 OA
ATOM      6  N1  <0> d          -0.011   0.966   0.007  0.00  0.00    -0.302 N 
ATOM      7  H1  <0> d          -0.006  -0.134   0.006  0.00  0.00     0.171 HD
ATOM      8  C5  <0> d          -1.204   1.618   0.017  0.00  0.00     0.182 A 
ATOM      9  O2  <0> d          -2.354   0.908   0.018  0.00  0.00    -0.172 OA
ATOM     10  H2  <0> d          -2.208   3.490   0.041  0.00  0.00     0.091 H 
ATOM     11  H3  <0> d           2.082   3.595   0.001  0.00  0.00     0.093 H 
ENDROOT
BRANCH   2  12
ATOM     12  C6  <0> d          -0.095   5.208   0.029  0.00  0.00     0.209 C 
ATOM     13  O3  <0> d           0.942   5.839   0.022  0.00  0.00    -0.644 OA
ATOM     14  O4  <0> d          -1.276   5.853   0.043  0.00  0.00    -0.644 OA
ENDBRANCH   2  12
TORSDOF 1
