REMARK  3 active torsions:
REMARK  status: ('A' for Active; 'I' for Inactive)
REMARK    1  A    between atoms: C1_1  and  C2_2 
REMARK    2  A    between atoms: C4_4  and  C9_9 
REMARK    3  A    between atoms: C6_6  and  C8_8 
ROOT
ATOM      1  C2  <0> d           0.002  -0.004   0.002  0.00  0.00    -0.057 C 
ATOM      2  C3  <0> d           0.718  -0.497  -1.257  0.00  0.00    -0.059 C 
ATOM      3  C4  <0> d           0.739  -2.027  -1.265  0.00  0.00    -0.057 C 
ATOM      4  C5  <0> d           1.479  -2.534  -0.026  0.00  0.00    -0.059 C 
ATOM      5  C6  <0> d           0.763  -2.041   1.233  0.00  0.00    -0.057 C 
ATOM      6  C7  <0> d           0.742  -0.511   1.242  0.00  0.00    -0.059 C 
ATOM      7  H4  <0> d          -1.020  -0.381   0.010  0.00  0.00     0.039 H 
ATOM      8  H5  <0> d           0.191  -0.136  -2.140  0.00  0.00     0.034 H 
ATOM      9  H6  <0> d           1.741  -0.120  -1.264  0.00  0.00     0.034 H 
ATOM     10  H7  <0> d           1.249  -2.379  -2.162  0.00  0.00     0.039 H 
ATOM     11  H8  <0> d           1.494  -3.624  -0.032  0.00  0.00     0.034 H 
ATOM     12  H9  <0> d           2.502  -2.157  -0.033  0.00  0.00     0.034 H 
ATOM     13  H10 <0> d          -0.260  -2.418   1.241  0.00  0.00     0.039 H 
ATOM     14  H11 <0> d           1.765  -0.134   1.234  0.00  0.00     0.034 H 
ATOM     15  H12 <0> d           0.232  -0.159   2.138  0.00  0.00     0.034 H 
ENDROOT
BRANCH   1  16
ATOM     16  C1  <0> d          -0.019   1.526   0.010  0.00  0.00    -0.073 C 
ATOM     17  H1  <0> d           1.004   1.903   0.003  0.00  0.00     0.028 H 
ATOM     18  H2  <0> d          -0.546   1.887  -0.873  0.00  0.00     0.028 H 
ATOM     19  H3  <0> d          -0.529   1.877   0.907  0.00  0.00     0.028 H 
ENDBRANCH   1  16
BRANCH   5  20
ATOM     20  C8  <0> d           1.503  -2.548   2.473  0.00  0.00    -0.073 C 
ATOM     21  H13 <0> d           2.525  -2.170   2.465  0.00  0.00     0.028 H 
ATOM     22  H14 <0> d           0.993  -2.196   3.369  0.00  0.00     0.028 H 
ATOM     23  H15 <0> d           1.518  -3.638   2.467  0.00  0.00     0.028 H 
ENDBRANCH   5  20
BRANCH   3  24
ATOM     24  C9  <0> d          -0.696  -2.557  -1.254  0.00  0.00    -0.073 C 
ATOM     25  H16 <0> d          -1.224  -2.196  -2.137  0.00  0.00     0.028 H 
ATOM     26  H17 <0> d          -0.682  -3.647  -1.260  0.00  0.00     0.028 H 
ATOM     27  H18 <0> d          -1.207  -2.205  -0.357  0.00  0.00     0.028 H 
ENDBRANCH   3  24
TORSDOF 3
