REMARK  5 active torsions:
REMARK  status: ('A' for Active; 'I' for Inactive)
REMARK    1  A    between atoms: C1_1  and  C2_2 
REMARK    2  A    between atoms: C2_2  and  O1_3 
REMARK    3  A    between atoms: O1_3  and  C3_4 
REMARK    4  A    between atoms: C3_4  and  C4_6 
REMARK    5  A    between atoms: C4_6  and  C5_8 
ROOT
ATOM      1  C5  <0> d          -0.013   1.086   0.008  0.00  0.00     0.038 C 
ATOM      2  C6  <0> d          -0.725   1.573  -1.185  0.00  0.00     0.060 C 
ATOM      3  N1  <0> d          -1.274   1.950  -2.105  0.00  0.00    -0.197 NA
ATOM      4  H7  <0> d           1.019   1.466   0.000  0.00  0.00     0.057 H 
ATOM      5  H8  <0> d           0.002  -0.014   0.002  0.00  0.00     0.057 H 
ENDROOT
BRANCH   1   6
ATOM      6  C4  <0> d          -0.729   1.579   1.267  0.00  0.00     0.125 C 
ATOM      7  H1  <0> d          -1.794   1.304   1.246  0.00  0.00     0.080 H 
ATOM      8  C7  <0> d          -0.644   3.047   1.336  0.00  0.00     0.075 C 
ATOM      9  N2  <0> d          -0.579   4.180   1.389  0.00  0.00    -0.196 NA
BRANCH   6  10
ATOM     10  C3  <0> d          -0.074   0.981   2.485  0.00  0.00     0.277 C 
ATOM     11  O2  <0> d           0.869   0.235   2.359  0.00  0.00    -0.264 OA
BRANCH  10  12
ATOM     12  O1  <0> d          -0.538   1.275   3.709  0.00  0.00    -0.321 OA
BRANCH  12  13
ATOM     13  C2  <0> d           0.142   0.662   4.837  0.00  0.00     0.025 C 
ATOM     14  H5  <0> d           1.198   0.969   4.839  0.00  0.00     0.074 H 
ATOM     15  H6  <0> d           0.079  -0.433   4.752  0.00  0.00     0.074 H 
BRANCH  13  16
ATOM     16  C1  <0> d          -0.523   1.112   6.139  0.00  0.00    -0.056 C 
ATOM     17  H2  <0> d          -0.008   0.647   6.993  0.00  0.00     0.030 H 
ATOM     18  H3  <0> d          -1.579   0.805   6.137  0.00  0.00     0.030 H 
ATOM     19  H4  <0> d          -0.460   2.207   6.224  0.00  0.00     0.030 H 
ENDBRANCH  13  16
ENDBRANCH  12  13
ENDBRANCH  10  12
ENDBRANCH   6  10
ENDBRANCH   1   6
TORSDOF 5
