REMARK  5 active torsions:
REMARK  status: ('A' for Active; 'I' for Inactive)
REMARK    1  A    between atoms: C1_1  and  C2_2 
REMARK    2  A    between atoms: C2_2  and  C3_3 
REMARK    3  A    between atoms: C2_2  and  C4_4 
REMARK    4  A    between atoms: C2_2  and  C7_7 
REMARK    5  A    between atoms: C4_4  and  C5_5 
REMARK       I    between atoms: C7_7  and  N1_9 
ROOT
ATOM      1  C5  <0> d           1.397   3.504   0.007  0.00  0.00    -0.116 C 
ATOM      2  C6  <0> d           1.381   4.678   0.014  0.00  0.00    -0.154 C 
ATOM      3  H9  <0> d           1.367   5.728   0.020  0.00  0.00     0.166 H 
ENDROOT
BRANCH   1   4
ATOM      4  C4  <0> d           1.417   2.032  -0.001  0.00  0.00     0.004 C 
ATOM      5  H7  <0> d           1.944   1.671   0.882  0.00  0.00     0.053 H 
ATOM      6  H8  <0> d           1.927   1.681  -0.897  0.00  0.00     0.053 H 
BRANCH   4   7
ATOM      7  C2  <0> d          -0.018   1.503   0.010  0.00  0.00     0.043 C 
BRANCH   7   8
ATOM      8  C1  <0> d          -0.758   2.010  -1.229  0.00  0.00    -0.060 C 
ATOM      9  H1  <0> d          -1.781   1.632  -1.222  0.00  0.00     0.029 H 
ATOM     10  H2  <0> d          -0.773   3.099  -1.223  0.00  0.00     0.029 H 
ATOM     11  H3  <0> d          -0.248   1.658  -2.126  0.00  0.00     0.029 H 
ENDBRANCH   7   8
BRANCH   7  12
ATOM     12  C3  <0> d          -0.735   1.996   1.269  0.00  0.00    -0.060 C 
ATOM     13  H4  <0> d          -0.207   1.635   2.152  0.00  0.00     0.029 H 
ATOM     14  H5  <0> d          -0.749   3.086   1.275  0.00  0.00     0.029 H 
ATOM     15  H6  <0> d          -1.757   1.619   1.277  0.00  0.00     0.029 H 
ENDBRANCH   7  12
BRANCH   7  16
ATOM     16  C7  <0> d           0.002  -0.004   0.002  0.00  0.00     0.224 C 
ATOM     17  O1  <0> d           1.060  -0.596  -0.011  0.00  0.00    -0.273 OA
ATOM     18  N1  <0> d          -1.156  -0.694   0.009  0.00  0.00    -0.369 N 
ATOM     19  H10 <0> d          -2.002  -0.220   0.020  0.00  0.00     0.159 HD
ATOM     20  H11 <0> d          -1.143  -1.664   0.004  0.00  0.00     0.159 HD
ENDBRANCH   7  16
ENDBRANCH   4   7
ENDBRANCH   1   4
TORSDOF 5
