REMARK  9 active torsions:
REMARK  status: ('A' for Active; 'I' for Inactive)
REMARK    1  A    between atoms: C1_1  and  C2_2 
REMARK    2  A    between atoms: C2_2  and  C3_3 
REMARK    3  A    between atoms: C3_3  and  C4_4 
REMARK    4  A    between atoms: C4_4  and  C5_5 
REMARK    5  A    between atoms: C5_5  and  C6_6 
REMARK    6  A    between atoms: C6_6  and  C7_7 
REMARK    7  A    between atoms: C7_7  and  C8_9 
REMARK    8  A    between atoms: C7_7  and  O1_11 
REMARK    9  A    between atoms: O1_11  and  C10_12 
ROOT
ATOM      1  C8  <0> d          -4.243  -6.120   0.131  0.00  0.00    -0.085 C 
ATOM      2  C9  <0> d          -4.228  -7.290   0.221  0.00  0.00    -0.151 C 
ATOM      3  H15 <0> d          -4.214  -8.337   0.301  0.00  0.00     0.166 H 
ENDROOT
BRANCH   1   4
ATOM      4  C7  <0> d          -4.263  -4.652   0.018  0.00  0.00     0.095 C 
ATOM      5  H1  <0> d          -4.799  -4.230   0.867  0.00  0.00     0.103 H 
BRANCH   4   6
ATOM      6  C6  <0> d          -2.827  -4.123   0.007  0.00  0.00    -0.031 C 
ATOM      7  H13 <0> d          -2.317  -4.474  -0.890  0.00  0.00     0.038 H 
ATOM      8  H14 <0> d          -2.300  -4.484   0.890  0.00  0.00     0.038 H 
BRANCH   6   9
ATOM      9  C5  <0> d          -2.848  -2.593   0.015  0.00  0.00    -0.062 C 
ATOM     10  H11 <0> d          -3.358  -2.241   0.912  0.00  0.00     0.033 H 
ATOM     11  H12 <0> d          -3.375  -2.232  -0.868  0.00  0.00     0.033 H 
BRANCH   9  12
ATOM     12  C4  <0> d          -1.413  -2.063   0.004  0.00  0.00    -0.065 C 
ATOM     13  H9  <0> d          -0.902  -2.415  -0.892  0.00  0.00     0.033 H 
ATOM     14  H10 <0> d          -0.885  -2.425   0.887  0.00  0.00     0.033 H 
BRANCH  12  15
ATOM     15  C3  <0> d          -1.433  -0.534   0.013  0.00  0.00    -0.065 C 
ATOM     16  H7  <0> d          -1.944  -0.182   0.910  0.00  0.00     0.033 H 
ATOM     17  H8  <0> d          -1.960  -0.173  -0.870  0.00  0.00     0.033 H 
BRANCH  15  18
ATOM     18  C2  <0> d           0.002  -0.004   0.002  0.00  0.00    -0.069 C 
ATOM     19  H5  <0> d           0.512  -0.356  -0.895  0.00  0.00     0.032 H 
ATOM     20  H6  <0> d           0.529  -0.365   0.885  0.00  0.00     0.032 H 
BRANCH  18  21
ATOM     21  C1  <0> d          -0.019   1.526   0.010  0.00  0.00    -0.077 C 
ATOM     22  H2  <0> d           1.004   1.903   0.003  0.00  0.00     0.027 H 
ATOM     23  H3  <0> d          -0.546   1.887  -0.873  0.00  0.00     0.027 H 
ATOM     24  H4  <0> d          -0.529   1.877   0.907  0.00  0.00     0.027 H 
ENDBRANCH  18  21
ENDBRANCH  15  18
ENDBRANCH  12  15
ENDBRANCH   9  12
ENDBRANCH   6   9
ENDBRANCH   4   6
BRANCH   4  25
ATOM     25  O1  <0> d          -4.918  -4.277  -1.195  0.00  0.00    -0.379 OA
BRANCH  25  26
ATOM     26  C10 <0> d          -6.329  -4.090  -1.060  0.00  0.00     0.006 C 
ATOM     27  H16 <0> d          -6.787  -5.020  -0.721  0.00  0.00     0.066 H 
ATOM     28  H17 <0> d          -6.523  -3.303  -0.332  0.00  0.00     0.066 H 
ATOM     29  H18 <0> d          -6.752  -3.807  -2.023  0.00  0.00     0.066 H 
ENDBRANCH  25  26
ENDBRANCH   4  25
ENDBRANCH   1   4
TORSDOF 9
