REMARK  4 active torsions:
REMARK  status: ('A' for Active; 'I' for Inactive)
REMARK    1  A    between atoms: C3_3  and  C6_9 
REMARK    2  A    between atoms: C4_5  and  C5_7 
REMARK    3  A    between atoms: C5_7  and  O1_8 
REMARK    4  A    between atoms: C6_9  and  O2_10 
ROOT
ATOM      1  C1  <0> d           0.940   3.694  -1.390  0.00  0.00    -0.059 C 
ATOM      2  C2  <0> d           1.878   4.829  -0.947  0.00  0.00    -0.059 C 
ATOM      3  C3  <0> d           2.490   3.829   0.048  0.00  0.00    -0.028 C 
ATOM      4  H1  <0> d           3.319   3.254  -0.365  0.00  0.00     0.043 H 
ATOM      5  C4  <0> d           1.145   3.085   0.008  0.00  0.00    -0.028 C 
ATOM      6  H2  <0> d           0.427   3.439   0.747  0.00  0.00     0.043 H 
ATOM      7  H3  <0> d           1.345   3.082  -2.196  0.00  0.00     0.033 H 
ATOM      8  H4  <0> d          -0.082   4.021  -1.578  0.00  0.00     0.033 H 
ATOM      9  H5  <0> d           2.571   5.151  -1.724  0.00  0.00     0.033 H 
ATOM     10  H6  <0> d           1.361   5.661  -0.469  0.00  0.00     0.033 H 
ENDROOT
BRANCH   3  11
ATOM     11  C6  <0> d           2.812   4.441   1.413  0.00  0.00     0.021 C 
ATOM     12  H10 <0> d           2.086   5.221   1.642  0.00  0.00     0.074 H 
ATOM     13  H11 <0> d           2.766   3.666   2.178  0.00  0.00     0.074 H 
BRANCH  11  14
ATOM     14  O2  <0> d           4.124   5.005   1.385  0.00  0.00    -0.400 OA
ATOM     15  H12 <0> d           4.396   5.412   2.219  0.00  0.00     0.209 HD
ENDBRANCH  11  14
ENDBRANCH   3  11
BRANCH   5  16
ATOM     16  C5  <0> d           1.286   1.562  -0.002  0.00  0.00     0.021 C 
ATOM     17  H7  <0> d           1.840   1.243   0.881  0.00  0.00     0.074 H 
ATOM     18  H8  <0> d           1.823   1.252  -0.899  0.00  0.00     0.074 H 
BRANCH  16  19
ATOM     19  O1  <0> d          -0.011   0.963   0.007  0.00  0.00    -0.400 OA
ATOM     20  H9  <0> d           0.002  -0.004   0.002  0.00  0.00     0.209 HD
ENDBRANCH  16  19
ENDBRANCH   5  16
TORSDOF 4
