REMARK  0 active torsions:
REMARK  status: ('A' for Active; 'I' for Inactive)
ROOT
ATOM      1  C1  <0> d          -1.768   2.582   0.765  0.00  0.00    -0.045 A 
ATOM      2  C2  <0> d          -1.731   2.470  -0.735  0.00  0.00    -0.105 A 
ATOM      3  C3  <0> d          -0.787   1.658  -1.148  0.00  0.00    -0.101 A 
ATOM      4  C4  <0> d          -0.013   1.086   0.008  0.00  0.00    -0.027 A 
ATOM      5  H1  <0> d           0.002  -0.004   0.002  0.00  0.00     0.047 H 
ATOM      6  C5  <0> d          -0.652   1.669   1.299  0.00  0.00    -0.037 A 
ATOM      7  H2  <0> d          -1.001   0.905   1.994  0.00  0.00     0.042 H 
ATOM      8  C6  <0> d           0.476   2.571   1.892  0.00  0.00    -0.033 C 
ATOM      9  H3  <0> d           0.369   2.874   2.933  0.00  0.00     0.046 H 
ATOM     10  C7  <0> d           1.743   1.710   1.536  0.00  0.00    -0.051 C 
ATOM     11  C8  <0> d           1.421   1.705  -0.002  0.00  0.00    -0.030 C 
ATOM     12  H4  <0> d           2.151   1.222  -0.652  0.00  0.00     0.046 H 
ATOM     13  C9  <0> d           1.177   3.203  -0.223  0.00  0.00    -0.101 C 
ATOM     14  C10 <0> d           0.632   3.701   0.868  0.00  0.00    -0.101 C 
ATOM     15  H5  <0> d          -2.735   2.248   1.141  0.00  0.00     0.039 H 
ATOM     16  H6  <0> d          -1.585   3.612   1.069  0.00  0.00     0.039 H 
ATOM     17  H7  <0> d          -2.405   2.994  -1.397  0.00  0.00     0.076 H 
ATOM     18  H8  <0> d          -0.578   1.434  -2.184  0.00  0.00     0.076 H 
ATOM     19  H9  <0> d           1.706   0.712   1.974  0.00  0.00     0.034 H 
ATOM     20  H10 <0> d           2.676   2.225   1.766  0.00  0.00     0.034 H 
ATOM     21  H11 <0> d           1.413   3.756  -1.121  0.00  0.00     0.076 H 
ATOM     22  H12 <0> d           0.344   4.731   1.016  0.00  0.00     0.076 H 
ENDROOT
TORSDOF 0
