REMARK  1 active torsions:
REMARK  status: ('A' for Active; 'I' for Inactive)
REMARK    1  A    between atoms: C6_6  and  N1_7 
ROOT
ATOM      1  C1  <0> d          -1.199   1.742   0.017  0.00  0.00    -0.056 A 
ATOM      2  C2  <0> d          -0.013   1.076   0.008  0.00  0.00    -0.052 A 
ATOM      3  C3  <0> d           1.192   1.795   0.000  0.00  0.00     0.070 A 
ATOM      4  C4  <0> d           1.158   3.214   0.008  0.00  0.00     0.012 A 
ATOM      5  C5  <0> d          -0.076   3.879   0.023  0.00  0.00    -0.044 A 
ATOM      6  C6  <0> d          -1.241   3.141   0.030  0.00  0.00     0.026 A 
ATOM      7  C7  <0> d           2.381   3.910  -0.001  0.00  0.00     0.016 A 
ATOM      8  N2  <0> d           3.498   3.212  -0.015  0.00  0.00    -0.253 NA
ATOM      9  C8  <0> d           3.488   1.886  -0.021  0.00  0.00     0.086 A 
ATOM     10  N3  <0> d           2.382   1.183  -0.014  0.00  0.00    -0.241 NA
ATOM     11  H1  <0> d          -2.123   1.182   0.019  0.00  0.00     0.087 H 
ATOM     12  H2  <0> d           0.002  -0.004   0.002  0.00  0.00     0.087 H 
ATOM     13  H3  <0> d          -0.114   4.958   0.028  0.00  0.00     0.088 H 
ATOM     14  H6  <0> d           2.403   4.990   0.004  0.00  0.00     0.116 H 
ATOM     15  H7  <0> d           4.433   1.363  -0.033  0.00  0.00     0.146 H 
ENDROOT
BRANCH   6  16
ATOM     16  N1  <0> d          -2.474   3.796   0.045  0.00  0.00    -0.399 N 
ATOM     17  H4  <0> d          -2.513   4.895   0.054  0.00  0.00     0.156 HD
ATOM     18  H5  <0> d          -3.407   3.212   0.046  0.00  0.00     0.156 HD
ENDBRANCH   6  16
TORSDOF 1
