REMARK  5 active torsions:
REMARK  status: ('A' for Active; 'I' for Inactive)
REMARK    1  A    between atoms: C1_1  and  C2_2 
REMARK    2  A    between atoms: C2_2  and  C3_4 
REMARK    3  A    between atoms: C2_2  and  C7_10 
REMARK    4  A    between atoms: C3_4  and  N1_5 
REMARK    5  A    between atoms: C7_10  and  O1_11 
ROOT
ATOM      1  C2  <0> d          -0.729   1.579   1.267  0.00  0.00    -0.020 C 
ATOM      2  H1  <0> d          -1.776   1.277   1.232  0.00  0.00     0.045 H 
ENDROOT
BRANCH   1   3
ATOM      3  C1  <0> d          -0.641   3.105   1.339  0.00  0.00    -0.069 C 
ATOM      4  H2  <0> d          -1.151   3.457   2.235  0.00  0.00     0.028 H 
ATOM      5  H3  <0> d           0.406   3.407   1.374  0.00  0.00     0.028 H 
ATOM      6  H4  <0> d          -1.115   3.538   0.458  0.00  0.00     0.028 H 
ENDBRANCH   1   3
BRANCH   1   7
ATOM      7  C3  <0> d          -0.013   1.086   0.008  0.00  0.00     0.021 C 
ATOM      8  H5  <0> d           0.002  -0.004   0.002  0.00  0.00     0.068 H 
ATOM      9  H6  <0> d           1.010   1.463   0.000  0.00  0.00     0.068 H 
BRANCH   7  10
ATOM     10  N1  <0> d          -0.721   1.571  -1.179  0.00  0.00    -0.281 N 
ATOM     11  N2  <0> d          -2.079   1.378  -1.464  0.00  0.00    -0.185 NA
ATOM     12  C6  <0> d          -2.342   1.956  -2.609  0.00  0.00     0.023 A 
ATOM     13  C5  <0> d          -1.162   2.534  -3.088  0.00  0.00    -0.048 A 
ATOM     14  H9  <0> d          -3.304   1.981  -3.099  0.00  0.00     0.117 H 
ATOM     15  C4  <0> d          -0.183   2.288  -2.187  0.00  0.00    -0.000 A 
ATOM     16  H8  <0> d          -1.053   3.084  -4.011  0.00  0.00     0.087 H 
ATOM     17  H7  <0> d           0.847   2.606  -2.263  0.00  0.00     0.114 H 
ENDBRANCH   7  10
ENDBRANCH   1   7
BRANCH   1  18
ATOM     18  C7  <0> d          -0.064   0.971   2.503  0.00  0.00     0.021 C 
ATOM     19  H10 <0> d          -0.047  -0.115   2.410  0.00  0.00     0.074 H 
ATOM     20  H11 <0> d           0.957   1.344   2.587  0.00  0.00     0.074 H 
BRANCH  18  21
ATOM     21  O1  <0> d          -0.802   1.338   3.670  0.00  0.00    -0.400 OA
ATOM     22  H12 <0> d          -0.437   0.987   4.494  0.00  0.00     0.209 HD
ENDBRANCH  18  21
ENDBRANCH   1  18
TORSDOF 5
