REMARK  1 active torsions:
REMARK  status: ('A' for Active; 'I' for Inactive)
REMARK    1  A    between atoms: C1_1  and  C2_2 
ROOT
ATOM      1  C2  <0> d           0.002  -0.004   0.002  0.00  0.00    -0.052 C 
ATOM      2  H1  <0> d           0.512  -0.356  -0.895  0.00  0.00     0.039 H 
ATOM      3  C3  <0> d          -1.433  -0.534   0.013  0.00  0.00    -0.062 C 
ATOM      4  C4  <0> d          -1.413  -2.063   0.004  0.00  0.00    -0.059 C 
ATOM      5  C5  <0> d          -0.673  -2.570   1.244  0.00  0.00    -0.004 C 
ATOM      6  C6  <0> d           0.763  -2.041   1.233  0.00  0.00     0.244 C 
ATOM      7  C7  <0> d           0.742  -0.511   1.242  0.00  0.00    -0.001 C 
ATOM      8  F1  <0> d           1.418  -2.492   0.082  0.00  0.00    -0.206 F 
ATOM      9  F2  <0> d           1.439  -2.504   2.366  0.00  0.00    -0.206 F 
ATOM     10  H5  <0> d          -1.944  -0.182   0.910  0.00  0.00     0.033 H 
ATOM     11  H6  <0> d          -1.960  -0.173  -0.870  0.00  0.00     0.033 H 
ATOM     12  H7  <0> d          -2.435  -2.441   0.012  0.00  0.00     0.033 H 
ATOM     13  H8  <0> d          -0.902  -2.415  -0.892  0.00  0.00     0.033 H 
ATOM     14  H9  <0> d          -1.183  -2.219   2.141  0.00  0.00     0.041 H 
ATOM     15  H10 <0> d          -0.658  -3.660   1.238  0.00  0.00     0.041 H 
ATOM     16  H11 <0> d           1.765  -0.134   1.234  0.00  0.00     0.042 H 
ATOM     17  H12 <0> d           0.232  -0.159   2.138  0.00  0.00     0.042 H 
ENDROOT
BRANCH   1  18
ATOM     18  C1  <0> d          -0.019   1.526   0.010  0.00  0.00    -0.073 C 
ATOM     19  H2  <0> d           1.004   1.903   0.003  0.00  0.00     0.028 H 
ATOM     20  H3  <0> d          -0.546   1.887  -0.873  0.00  0.00     0.028 H 
ATOM     21  H4  <0> d          -0.529   1.877   0.907  0.00  0.00     0.028 H 
ENDBRANCH   1  18
TORSDOF 1
