REMARK  0 active torsions:
REMARK  status: ('A' for Active; 'I' for Inactive)
ROOT
ATOM      1  C1  <0> d          -0.013   1.086   0.008  0.00  0.00     0.075 C 
ATOM      2  C2  <0> d          -0.747   1.588  -1.214  0.00  0.00     0.277 C 
ATOM      3  O1  <0> d          -0.922   0.882  -2.179  0.00  0.00    -0.263 OA
ATOM      4  O2  <0> d          -1.199   2.862  -1.182  0.00  0.00    -0.311 OA
ATOM      5  C3  <0> d          -2.121   3.151  -0.094  0.00  0.00     0.102 C 
ATOM      6  C4  <0> d          -1.625   2.525   1.178  0.00  0.00     0.242 C 
ATOM      7  O3  <0> d          -2.085   2.916   2.231  0.00  0.00    -0.271 OA
ATOM      8  N1  <0> d          -0.700   1.559   1.209  0.00  0.00    -0.350 N 
ATOM      9  H1  <0> d           0.002  -0.004   0.002  0.00  0.00     0.079 H 
ATOM     10  H2  <0> d           1.010   1.464   0.000  0.00  0.00     0.079 H 
ATOM     11  H3  <0> d          -2.196   4.231   0.040  0.00  0.00     0.089 H 
ATOM     12  H4  <0> d          -3.104   2.749  -0.336  0.00  0.00     0.089 H 
ATOM     13  H5  <0> d          -0.477   1.154   2.062  0.00  0.00     0.163 HD
ENDROOT
TORSDOF 0
