REMARK  4 active torsions:
REMARK  status: ('A' for Active; 'I' for Inactive)
REMARK    1  A    between atoms: C1_1  and  C2_2 
REMARK    2  A    between atoms: C2_2  and  C3_4 
REMARK    3  A    between atoms: C2_2  and  N1_11 
REMARK    4  A    between atoms: C3_4  and  C4_6 
ROOT
ATOM      1  C3  <0> d          -1.412  -0.526   0.013  0.00  0.00     0.198 C 
ATOM      2  O1  <0> d          -1.897  -0.986  -1.001  0.00  0.00    -0.289 OA
ENDROOT
BRANCH   1   3
ATOM      3  C2  <0> d           0.002  -0.004   0.002  0.00  0.00     0.189 C 
ATOM      4  H1  <0> d           0.529  -0.365   0.885  0.00  0.00     0.100 H 
BRANCH   3   5
ATOM      5  C1  <0> d          -0.019   1.526   0.010  0.00  0.00    -0.041 C 
ATOM      6  H2  <0> d           1.004   1.903   0.003  0.00  0.00     0.030 H 
ATOM      7  H3  <0> d          -0.546   1.887  -0.873  0.00  0.00     0.030 H 
ATOM      8  H4  <0> d          -0.529   1.877   0.907  0.00  0.00     0.030 H 
ENDBRANCH   3   5
BRANCH   3   9
ATOM      9  N1  <0> d           0.690  -0.478  -1.207  0.00  0.00     0.090 N 
ATOM     10  H8  <0> d           0.184  -0.211  -2.038  0.00  0.00     0.313 HD
ATOM     11  H9  <0> d           1.640  -0.141  -1.237  0.00  0.00     0.313 HD
ENDBRANCH   3   9
ENDBRANCH   1   3
BRANCH   1  12
ATOM     12  C4  <0> d          -2.172  -0.479   1.202  0.00  0.00     0.052 A 
ATOM     13  S1  <0> d          -1.709   0.136   2.809  0.00  0.00    -0.098 SA
ATOM     14  C7  <0> d          -3.142  -0.164   3.633  0.00  0.00    -0.044 A 
ATOM     15  C6  <0> d          -3.951  -0.730   2.700  0.00  0.00    -0.075 A 
ATOM     16  H7  <0> d          -3.367   0.041   4.669  0.00  0.00     0.095 H 
ATOM     17  C5  <0> d          -3.478  -0.908   1.426  0.00  0.00    -0.062 A 
ATOM     18  H6  <0> d          -4.955  -1.035   2.959  0.00  0.00     0.084 H 
ATOM     19  H5  <0> d          -4.079  -1.352   0.646  0.00  0.00     0.085 H 
ENDBRANCH   1  12
TORSDOF 4
