REMARK  1 active torsions:
REMARK  status: ('A' for Active; 'I' for Inactive)
REMARK       I    between atoms: N2_4  and  C4_7 
REMARK    1  A    between atoms: C3_5  and  N3_6 
REMARK       I    between atoms: C4_7  and  N4_9 
ROOT
ATOM      1  C1  <0> d          -3.342   2.311   0.029  0.00  0.00    -0.020 A 
ATOM      2  C2  <0> d          -2.640   3.521   0.033  0.00  0.00     0.026 A 
ATOM      3  N1  <0> d          -1.359   3.259   0.026  0.00  0.00    -0.174 NA
ATOM      4  N2  <0> d          -1.191   1.869   0.018  0.00  0.00    -0.167 N 
ATOM      5  C3  <0> d          -2.432   1.300   0.015  0.00  0.00     0.129 A 
ATOM      6  C4  <0> d          -0.014   1.211   0.009  0.00  0.00     0.342 C 
ATOM      7  O1  <0> d           0.002  -0.004   0.002  0.00  0.00    -0.245 OA
ATOM      8  N4  <0> d           1.143   1.901   0.001  0.00  0.00    -0.350 N 
ATOM      9  H1  <0> d          -4.416   2.199   0.034  0.00  0.00     0.091 H 
ATOM     10  H2  <0> d          -3.082   4.506   0.039  0.00  0.00     0.117 H 
ATOM     11  H5  <0> d           1.990   1.427  -0.009  0.00  0.00     0.160 HD
ATOM     12  H6  <0> d           1.130   2.870   0.007  0.00  0.00     0.160 HD
ENDROOT
BRANCH   5  13
ATOM     13  N3  <0> d          -2.713  -0.061   0.003  0.00  0.00    -0.384 N 
ATOM     14  H3  <0> d          -1.989  -0.706  -0.005  0.00  0.00     0.157 HD
ATOM     15  H4  <0> d          -3.634  -0.366   0.002  0.00  0.00     0.157 HD
ENDBRANCH   5  13
TORSDOF 1
