REMARK  0 active torsions:
REMARK  status: ('A' for Active; 'I' for Inactive)
ROOT
ATOM      1  C1  <0> d           1.383   2.103   0.000  0.00  0.00    -0.048 C 
ATOM      2  C2  <0> d           1.336   2.041   1.536  0.00  0.00    -0.048 C 
ATOM      3  C3  <0> d          -0.197   2.074   1.412  0.00  0.00     0.046 C 
ATOM      4  H1  <0> d          -0.706   1.411   2.112  0.00  0.00     0.064 H 
ATOM      5  C4  <0> d          -0.018   1.468   0.010  0.00  0.00     0.046 C 
ATOM      6  H2  <0> d          -0.692   1.886  -0.737  0.00  0.00     0.064 H 
ATOM      7  C5  <0> d           0.002  -0.004   0.002  0.00  0.00     0.065 C 
ATOM      8  N1  <0> d           0.018  -1.140  -0.004  0.00  0.00    -0.197 NA
ATOM      9  C6  <0> d          -0.758   3.434   1.399  0.00  0.00     0.065 C 
ATOM     10  N2  <0> d          -1.191   4.484   1.389  0.00  0.00    -0.197 NA
ATOM     11  H3  <0> d           2.149   1.464  -0.440  0.00  0.00     0.035 H 
ATOM     12  H4  <0> d           1.399   3.119  -0.395  0.00  0.00     0.035 H 
ATOM     13  H5  <0> d           1.721   1.107   1.947  0.00  0.00     0.035 H 
ATOM     14  H6  <0> d           1.755   2.922   2.022  0.00  0.00     0.035 H 
ENDROOT
TORSDOF 0
