REMARK  5 active torsions:
REMARK  status: ('A' for Active; 'I' for Inactive)
REMARK    1  A    between atoms: C1_1  and  C2_2 
REMARK    2  A    between atoms: C2_2  and  C3_4 
REMARK    3  A    between atoms: C2_2  and  O2_6 
REMARK    4  A    between atoms: O2_6  and  C4_7 
REMARK    5  A    between atoms: C4_7  and  C5_9 
ROOT
ATOM      1  C2  <0> d          -1.329   1.940   0.019  0.00  0.00     0.128 C 
ATOM      2  H1  <0> d          -1.400   2.570  -0.867  0.00  0.00     0.100 H 
ENDROOT
BRANCH   1   3
ATOM      3  C1  <0> d          -1.417   2.811   1.273  0.00  0.00    -0.042 C 
ATOM      4  H2  <0> d          -0.598   3.531   1.273  0.00  0.00     0.031 H 
ATOM      5  H3  <0> d          -2.368   3.344   1.281  0.00  0.00     0.031 H 
ATOM      6  H4  <0> d          -1.346   2.181   2.160  0.00  0.00     0.031 H 
ENDBRANCH   1   3
BRANCH   1   7
ATOM      7  C3  <0> d          -0.014   1.204   0.009  0.00  0.00     0.203 C 
ATOM      8  O1  <0> d           0.002  -0.004   0.002  0.00  0.00    -0.646 OA
ATOM      9  O4  <0> d           1.139   1.891   0.001  0.00  0.00    -0.646 OA
ENDBRANCH   1   7
BRANCH   1  10
ATOM     10  O2  <0> d          -2.420   0.981   0.019  0.00  0.00    -0.306 OA
BRANCH  10  11
ATOM     11  C4  <0> d          -3.564   1.360  -0.572  0.00  0.00     0.255 C 
ATOM     12  O3  <0> d          -3.652   2.457  -1.072  0.00  0.00    -0.266 OA
BRANCH  11  13
ATOM     13  C5  <0> d          -4.740   0.418  -0.611  0.00  0.00     0.004 C 
ATOM     14  H5  <0> d          -4.475  -0.514  -0.113  0.00  0.00     0.041 H 
ATOM     15  H6  <0> d          -5.588   0.874  -0.100  0.00  0.00     0.041 H 
ATOM     16  H7  <0> d          -5.008   0.214  -1.647  0.00  0.00     0.041 H 
ENDBRANCH  11  13
ENDBRANCH  10  11
ENDBRANCH   1  10
TORSDOF 5
