REMARK  4 active torsions:
REMARK  status: ('A' for Active; 'I' for Inactive)
REMARK    1  A    between atoms: C1_1  and  O1_2 
REMARK    2  A    between atoms: O1_2  and  C2_3 
REMARK    3  A    between atoms: C2_3  and  C3_5 
REMARK    4  A    between atoms: C5_7  and  N2_11 
ROOT
ATOM      1  C3  <0> d           0.663   3.193   0.012  0.00  0.00     0.110 A 
ATOM      2  C4  <0> d          -0.717   3.192   0.025  0.00  0.00    -0.025 A 
ATOM      3  C5  <0> d          -1.128   1.852   0.017  0.00  0.00     0.043 A 
ATOM      4  C6  <0> d          -0.013   1.076   0.008  0.00  0.00     0.003 A 
ATOM      5  N1  <0> d           1.082   1.882   0.002  0.00  0.00    -0.359 N 
ATOM      6  H1  <0> d           2.156   1.648  -0.009  0.00  0.00     0.165 HD
ATOM      7  H5  <0> d          -1.360   4.060   0.036  0.00  0.00     0.090 H 
ATOM      8  H6  <0> d           0.002  -0.004   0.002  0.00  0.00     0.114 H 
ENDROOT
BRANCH   1   9
ATOM      9  C2  <0> d           1.526   4.377   0.011  0.00  0.00     0.309 C 
ATOM     10  O2  <0> d           1.034   5.489   0.021  0.00  0.00    -0.258 OA
BRANCH   9  11
ATOM     11  O1  <0> d           2.868   4.233  -0.003  0.00  0.00    -0.321 OA
BRANCH  11  12
ATOM     12  C1  <0> d           3.648   5.430  -0.003  0.00  0.00     0.013 C 
ATOM     13  H2  <0> d           4.717   5.171  -0.015  0.00  0.00     0.067 H 
ATOM     14  H3  <0> d           3.422   6.016   0.900  0.00  0.00     0.067 H 
ATOM     15  H4  <0> d           3.406   6.025  -0.896  0.00  0.00     0.067 H 
ENDBRANCH  11  12
ENDBRANCH   9  11
ENDBRANCH   1   9
BRANCH   3  16
ATOM     16  N2  <0> d          -2.458   1.393   0.020  0.00  0.00    -0.398 N 
ATOM     17  H7  <0> d          -2.667   0.312   0.013  0.00  0.00     0.156 HD
ATOM     18  H8  <0> d          -3.289   2.113   0.030  0.00  0.00     0.156 HD
ENDBRANCH   3  16
TORSDOF 4
