REMARK  1 active torsions:
REMARK  status: ('A' for Active; 'I' for Inactive)
REMARK    1  A    between atoms: C4_4  and  C7_7 
ROOT
ATOM      1  C7  <0> d           1.417   1.997  -0.001  0.00  0.00     0.034 C 
ATOM      2  C8  <0> d           2.129   1.510   1.192  0.00  0.00     0.060 C 
ATOM      3  N1  <0> d           2.679   1.133   2.112  0.00  0.00    -0.197 NA
ATOM      4  H11 <0> d           1.932   1.643  -0.906  0.00  0.00     0.057 H 
ATOM      5  H12 <0> d           1.403   3.097   0.005  0.00  0.00     0.057 H 
ENDROOT
BRANCH   1   6
ATOM      6  C4  <0> d          -0.018   1.468   0.010  0.00  0.00     0.061 C 
ATOM      7  C3  <0> d          -0.758   1.975  -1.229  0.00  0.00    -0.045 C 
ATOM      8  C2  <0> d          -2.193   1.445  -1.219  0.00  0.00    -0.063 C 
ATOM      9  H5  <0> d          -0.243   1.620  -2.134  0.00  0.00     0.035 H 
ATOM     10  H6  <0> d          -0.773   3.075  -1.223  0.00  0.00     0.035 H 
ATOM     11  C1  <0> d          -2.909   1.938   0.040  0.00  0.00    -0.065 C 
ATOM     12  H3  <0> d          -2.178   0.345  -1.225  0.00  0.00     0.033 H 
ATOM     13  H4  <0> d          -2.725   1.809  -2.110  0.00  0.00     0.033 H 
ATOM     14  C6  <0> d          -2.169   1.432   1.280  0.00  0.00    -0.063 C 
ATOM     15  H1  <0> d          -3.941   1.558   0.048  0.00  0.00     0.033 H 
ATOM     16  H2  <0> d          -2.924   3.038   0.046  0.00  0.00     0.033 H 
ATOM     17  C5  <0> d          -0.734   1.961   1.269  0.00  0.00    -0.045 C 
ATOM     18  H9  <0> d          -2.684   1.786   2.185  0.00  0.00     0.033 H 
ATOM     19  H10 <0> d          -2.155   0.332   1.274  0.00  0.00     0.033 H 
ATOM     20  H7  <0> d          -0.202   1.597   2.160  0.00  0.00     0.035 H 
ATOM     21  H8  <0> d          -0.749   3.061   1.275  0.00  0.00     0.035 H 
ATOM     22  C9  <0> d           0.002  -0.004   0.002  0.00  0.00     0.070 C 
ATOM     23  N2  <0> d           0.018  -1.140  -0.004  0.00  0.00    -0.196 NA
ENDBRANCH   1   6
TORSDOF 1
