REMARK  3 active torsions:
REMARK  status: ('A' for Active; 'I' for Inactive)
REMARK    1  A    between atoms: C1_1  and  C2_2 
REMARK    2  A    between atoms: C2_2  and  C3_4 
REMARK    3  A    between atoms: C8_10  and  O2_12 
ROOT
ATOM      1  C3  <0> d          -1.293  -0.775   0.010  0.00  0.00     0.048 C 
ATOM      2  H1  <0> d          -2.054  -0.198   0.535  0.00  0.00     0.062 H 
ATOM      3  C4  <0> d          -1.738  -1.020  -1.407  0.00  0.00    -0.089 C 
ATOM      4  C5  <0> d          -1.274  -2.066  -2.082  0.00  0.00    -0.086 C 
ATOM      5  C6  <0> d          -0.325  -2.988  -1.438  0.00  0.00    -0.084 C 
ATOM      6  C7  <0> d          -0.226  -3.015  -0.114  0.00  0.00    -0.075 C 
ATOM      7  C8  <0> d          -1.084  -2.109   0.726  0.00  0.00     0.065 C 
ATOM      8  H2  <0> d          -2.051  -2.583   0.897  0.00  0.00     0.090 H 
ATOM      9  H6  <0> d          -2.437  -0.343  -1.876  0.00  0.00     0.078 H 
ATOM     10  H7  <0> d          -1.593  -2.240  -3.099  0.00  0.00     0.083 H 
ATOM     11  H8  <0> d           0.290  -3.640  -2.041  0.00  0.00     0.083 H 
ATOM     12  H9  <0> d           0.471  -3.690   0.361  0.00  0.00     0.080 H 
ENDROOT
BRANCH   1  13
ATOM     13  C2  <0> d           0.002  -0.004   0.002  0.00  0.00     0.133 C 
ATOM     14  O1  <0> d           1.056  -0.594  -0.011  0.00  0.00    -0.298 OA
BRANCH  13  15
ATOM     15  C1  <0> d          -0.018   1.503   0.010  0.00  0.00    -0.020 C 
ATOM     16  H3  <0> d           1.004   1.880   0.003  0.00  0.00     0.037 H 
ATOM     17  H4  <0> d          -0.545   1.864  -0.873  0.00  0.00     0.037 H 
ATOM     18  H5  <0> d          -0.529   1.854   0.907  0.00  0.00     0.037 H 
ENDBRANCH  13  15
ENDBRANCH   1  13
BRANCH   7  19
ATOM     19  O2  <0> d          -0.441  -1.879   1.981  0.00  0.00    -0.391 OA
ATOM     20  H10 <0> d          -0.276  -2.684   2.491  0.00  0.00     0.210 HD
ENDBRANCH   7  19
TORSDOF 3
