REMARK  0 active torsions:
REMARK  status: ('A' for Active; 'I' for Inactive)
ROOT
ATOM      1  C1  <0> d          -1.190   3.399   0.031  0.00  0.00     0.021 A 
ATOM      2  C2  <0> d           0.002   4.114   0.023  0.00  0.00     0.021 A 
ATOM      3  N1  <0> d           1.158   3.481   0.009  0.00  0.00    -0.246 NA
ATOM      4  C3  <0> d           1.189   2.151   0.002  0.00  0.00     0.175 A 
ATOM      5  C4  <0> d          -0.017   1.428   0.010  0.00  0.00     0.175 A 
ATOM      6  N2  <0> d          -1.176   2.081   0.019  0.00  0.00    -0.246 NA
ATOM      7  C5  <0> d           0.002  -0.004   0.002  0.00  0.00     0.123 C 
ATOM      8  N3  <0> d           0.018  -1.140  -0.004  0.00  0.00    -0.190 NA
ATOM      9  C6  <0> d           2.443   1.460  -0.013  0.00  0.00     0.123 C 
ATOM     10  N4  <0> d           3.438   0.912  -0.024  0.00  0.00    -0.190 NA
ATOM     11  H1  <0> d          -2.132   3.926   0.042  0.00  0.00     0.117 H 
ATOM     12  H2  <0> d          -0.020   5.194   0.029  0.00  0.00     0.117 H 
ENDROOT
TORSDOF 0
