REMARK  4 active torsions:
REMARK  status: ('A' for Active; 'I' for Inactive)
REMARK    1  A    between atoms: C1_1  and  C2_2 
REMARK    2  A    between atoms: C2_2  and  N1_3 
REMARK    3  A    between atoms: C3_4  and  C7_10 
REMARK    4  A    between atoms: C5_6  and  C6_8 
ROOT
ATOM      1  N1  <0> d          -1.372  -0.511   0.012  0.00  0.00    -0.273 N 
ATOM      2  C3  <0> d          -2.109  -0.787   1.110  0.00  0.00     0.050 A 
ATOM      3  C4  <0> d          -3.318  -1.231   0.694  0.00  0.00     0.083 A 
ATOM      4  C5  <0> d          -3.320  -1.226  -0.705  0.00  0.00     0.074 A 
ATOM      5  N2  <0> d          -2.156  -0.790  -1.114  0.00  0.00    -0.176 NA
ATOM      6 Cl1  <0> d          -4.634  -1.720   1.716  0.00  0.00    -0.080 Cl
ENDROOT
BRANCH   1   7
ATOM      7  C2  <0> d           0.002  -0.004   0.002  0.00  0.00     0.014 C 
ATOM      8  H4  <0> d           0.512  -0.356  -0.895  0.00  0.00     0.066 H 
ATOM      9  H5  <0> d           0.529  -0.365   0.885  0.00  0.00     0.066 H 
BRANCH   7  10
ATOM     10  C1  <0> d          -0.019   1.526   0.010  0.00  0.00    -0.059 C 
ATOM     11  H1  <0> d           1.004   1.903   0.003  0.00  0.00     0.029 H 
ATOM     12  H2  <0> d          -0.546   1.887  -0.873  0.00  0.00     0.029 H 
ATOM     13  H3  <0> d          -0.529   1.877   0.907  0.00  0.00     0.029 H 
ENDBRANCH   7  10
ENDBRANCH   1   7
BRANCH   2  14
ATOM     14  C7  <0> d          -1.665  -0.629   2.541  0.00  0.00    -0.034 C 
ATOM     15  H9  <0> d          -1.912   0.373   2.890  0.00  0.00     0.035 H 
ATOM     16  H10 <0> d          -2.173  -1.367   3.163  0.00  0.00     0.035 H 
ATOM     17  H11 <0> d          -0.587  -0.781   2.606  0.00  0.00     0.035 H 
ENDBRANCH   2  14
BRANCH   4  18
ATOM     18  C6  <0> d          -4.467  -1.646  -1.589  0.00  0.00    -0.032 C 
ATOM     19  H6  <0> d          -5.099  -0.782  -1.798  0.00  0.00     0.035 H 
ATOM     20  H7  <0> d          -4.077  -2.046  -2.525  0.00  0.00     0.035 H 
ATOM     21  H8  <0> d          -5.054  -2.412  -1.083  0.00  0.00     0.035 H 
ENDBRANCH   4  18
TORSDOF 4
