REMARK  2 active torsions:
REMARK  status: ('A' for Active; 'I' for Inactive)
REMARK    1  A    between atoms: C4_5  and  C5_6 
REMARK    2  A    between atoms: C6_9  and  N4_12 
ROOT
ATOM      1  C5  <0> d           1.212   1.746  -0.000  0.00  0.00     0.200 A 
ATOM      2  N1  <0> d           2.054   0.659  -0.014  0.00  0.00    -0.041 NA
ATOM      3  H1  <0> d          -0.943  -0.567   0.007  0.00  0.00     0.208 HD
ATOM      4  C6  <0> d           1.240  -0.438  -0.012  0.00  0.00     0.716 A 
ATOM      5  N2  <0> d           0.002  -0.004   0.002  0.00  0.00    -0.106 N 
ATOM      6  N3  <0> d          -0.015   1.281   0.009  0.00  0.00    -0.138 NA
ENDROOT
BRANCH   1   7
ATOM      7  C4  <0> d           1.613   3.169   0.004  0.00  0.00     0.038 A 
ATOM      8  C1  <0> d           0.727   4.340   0.020  0.00  0.00    -0.046 A 
ATOM      9  C2  <0> d           1.533   5.415   0.019  0.00  0.00     0.019 A 
ATOM     10  H2  <0> d          -0.353   4.338   0.031  0.00  0.00     0.087 H 
ATOM     11  O1  <0> d           2.810   5.005   0.004  0.00  0.00    -0.334 OA
ATOM     12  H3  <0> d           1.205   6.444   0.029  0.00  0.00     0.123 H 
ATOM     13  C3  <0> d           2.880   3.666   0.000  0.00  0.00     0.032 A 
ATOM     14  H4  <0> d           3.787   3.080  -0.007  0.00  0.00     0.124 H 
ENDBRANCH   1   7
BRANCH   4  15
ATOM     15  N4  <0> d           1.647  -1.763  -0.023  0.00  0.00    -0.231 N 
ATOM     16  H5  <0> d           0.897  -2.568  -0.020  0.00  0.00     0.174 HD
ATOM     17  H6  <0> d           2.719  -2.009  -0.034  0.00  0.00     0.174 HD
ENDBRANCH   4  15
TORSDOF 2
