REMARK  4 active torsions:
REMARK  status: ('A' for Active; 'I' for Inactive)
REMARK    1  A    between atoms: C1_1  and  C2_2 
REMARK    2  A    between atoms: C3_3  and  C4_4 
REMARK    3  A    between atoms: C4_4  and  N1_5 
REMARK    4  A    between atoms: N1_5  and  C5_6 
ROOT
ATOM      1  C5  <0> d          -0.017   1.393   0.010  0.00  0.00     0.028 A 
ATOM      2  C6  <0> d          -1.228   2.072   0.019  0.00  0.00    -0.058 A 
ATOM      3  C7  <0> d          -1.243   3.453   0.031  0.00  0.00    -0.081 A 
ATOM      4  C8  <0> d          -0.054   4.159   0.024  0.00  0.00    -0.083 A 
ATOM      5  C9  <0> d           1.153   3.486   0.009  0.00  0.00    -0.081 A 
ATOM      6  C10 <0> d           1.176   2.105   0.002  0.00  0.00    -0.058 A 
ATOM      7  H7  <0> d          -2.157   1.521   0.021  0.00  0.00     0.086 H 
ATOM      8  H8  <0> d          -2.185   3.982   0.042  0.00  0.00     0.083 H 
ATOM      9  H9  <0> d          -0.069   5.239   0.029  0.00  0.00     0.083 H 
ATOM     10  H10 <0> d           2.080   4.040   0.004  0.00  0.00     0.083 H 
ATOM     11  H11 <0> d           2.119   1.580  -0.010  0.00  0.00     0.086 H 
ENDROOT
BRANCH   1  12
ATOM     12  N1  <0> d           0.002  -0.004   0.002  0.00  0.00    -0.380 N 
ATOM     13  H6  <0> d           0.849  -0.478  -0.009  0.00  0.00     0.160 HD
BRANCH  12  14
ATOM     14  C4  <0> d          -1.256  -0.754   0.010  0.00  0.00     0.048 C 
ATOM     15  H4  <0> d          -1.823  -0.503   0.907  0.00  0.00     0.083 H 
ATOM     16  H5  <0> d          -1.840  -0.493  -0.873  0.00  0.00     0.083 H 
BRANCH  14  17
ATOM     17  C3  <0> d          -0.968  -2.197  -0.001  0.00  0.00    -0.087 C 
ATOM     18  C2  <0> d          -0.738  -3.348  -0.009  0.00  0.00    -0.109 C 
BRANCH  18  19
ATOM     19  C1  <0> d          -0.449  -4.792  -0.019  0.00  0.00    -0.021 C 
ATOM     20  H1  <0> d          -1.386  -5.349  -0.013  0.00  0.00     0.044 H 
ATOM     21  H2  <0> d           0.117  -5.043  -0.916  0.00  0.00     0.044 H 
ATOM     22  H3  <0> d           0.134  -5.052   0.864  0.00  0.00     0.044 H 
ENDBRANCH  18  19
ENDBRANCH  14  17
ENDBRANCH  12  14
ENDBRANCH   1  12
TORSDOF 4
