REMARK  3 active torsions:
REMARK  status: ('A' for Active; 'I' for Inactive)
REMARK    1  A    between atoms: C1_1  and  N1_2 
REMARK    2  A    between atoms: C2_3  and  N3_10 
REMARK    3  A    between atoms: C4_5  and  C5_7 
ROOT
ATOM      1  N1  <0> d           0.002  -0.004   0.002  0.00  0.00    -0.258 N 
ATOM      2  C2  <0> d           0.008  -0.794  -1.096  0.00  0.00     0.119 A 
ATOM      3  C3  <0> d           0.027  -2.087  -0.671  0.00  0.00    -0.009 A 
ATOM      4  C4  <0> d           0.034  -2.079   0.726  0.00  0.00     0.122 A 
ATOM      5  N2  <0> d           0.025  -0.834   1.130  0.00  0.00    -0.170 NA
ATOM      6  H4  <0> d           0.036  -2.964  -1.302  0.00  0.00     0.092 H 
ENDROOT
BRANCH   1   7
ATOM      7  C1  <0> d          -0.018   1.461   0.010  0.00  0.00     0.004 C 
ATOM      8  H1  <0> d           1.005   1.838   0.002  0.00  0.00     0.059 H 
ATOM      9  H2  <0> d          -0.545   1.822  -0.873  0.00  0.00     0.059 H 
ATOM     10  H3  <0> d          -0.528   1.812   0.907  0.00  0.00     0.059 H 
ENDBRANCH   1   7
BRANCH   2  11
ATOM     11  N3  <0> d          -0.004  -0.363  -2.420  0.00  0.00    -0.384 N 
ATOM     12  H6  <0> d          -0.018   0.586  -2.620  0.00  0.00     0.157 HD
ATOM     13  H7  <0> d           0.001  -1.011  -3.141  0.00  0.00     0.157 HD
ENDBRANCH   2  11
BRANCH   4  14
ATOM     14  C5  <0> d           0.053  -3.295   1.616  0.00  0.00     0.251 C 
ATOM     15  F1  <0> d          -0.605  -3.005   2.816  0.00  0.00    -0.207 F 
ATOM     16  F2  <0> d          -0.595  -4.354   0.973  0.00  0.00    -0.207 F 
ATOM     17  H5  <0> d           1.086  -3.575   1.826  0.00  0.00     0.155 H 
ENDBRANCH   4  14
TORSDOF 3
