REMARK  4 active torsions:
REMARK  status: ('A' for Active; 'I' for Inactive)
REMARK    1  A    between atoms: C5_6  and  C6_7 
REMARK    2  A    between atoms: C6_7  and  C7_8 
REMARK    3  A    between atoms: C7_8  and  C8_9 
REMARK    4  A    between atoms: C8_9  and  O1_10 
ROOT
ATOM      1  C6  <0> d          -2.530   3.893   0.046  0.00  0.00    -0.039 C 
ATOM      2  H5  <0> d          -3.289   3.308   0.564  0.00  0.00     0.040 H 
ATOM      3  H6  <0> d          -2.387   4.842   0.563  0.00  0.00     0.040 H 
ENDROOT
BRANCH   1   4
ATOM      4  C5  <0> d          -1.231   3.129   0.030  0.00  0.00    -0.055 A 
ATOM      5  C1  <0> d          -1.223   1.742   0.017  0.00  0.00    -0.060 A 
ATOM      6  C2  <0> d          -0.013   1.076   0.008  0.00  0.00     0.002 A 
ATOM      7  H1  <0> d          -2.151   1.190   0.018  0.00  0.00     0.086 H 
ATOM      8  N1  <0> d           1.125   1.743   0.001  0.00  0.00    -0.273 NA
ATOM      9  H2  <0> d           0.002  -0.004   0.002  0.00  0.00     0.114 H 
ATOM     10  C3  <0> d           1.155   3.061   0.007  0.00  0.00     0.002 A 
ATOM     11  C4  <0> d          -0.015   3.796   0.022  0.00  0.00    -0.060 A 
ATOM     12  H3  <0> d           2.107   3.573   0.001  0.00  0.00     0.114 H 
ATOM     13  H4  <0> d           0.016   4.875   0.027  0.00  0.00     0.086 H 
ENDBRANCH   1   4
BRANCH   1  14
ATOM     14  C7  <0> d          -2.983   4.158  -1.391  0.00  0.00    -0.042 C 
ATOM     15  H7  <0> d          -2.223   4.744  -1.909  0.00  0.00     0.036 H 
ATOM     16  H8  <0> d          -3.125   3.209  -1.909  0.00  0.00     0.036 H 
BRANCH  14  17
ATOM     17  C8  <0> d          -4.301   4.934  -1.376  0.00  0.00     0.017 C 
ATOM     18  H9  <0> d          -5.061   4.349  -0.858  0.00  0.00     0.073 H 
ATOM     19  H10 <0> d          -4.158   5.883  -0.859  0.00  0.00     0.073 H 
BRANCH  17  20
ATOM     20  O1  <0> d          -4.724   5.182  -2.718  0.00  0.00    -0.401 OA
ATOM     21  H11 <0> d          -5.556   5.671  -2.784  0.00  0.00     0.209 HD
ENDBRANCH  17  20
ENDBRANCH  14  17
ENDBRANCH   1  14
TORSDOF 4
