REMARK  2 active torsions:
REMARK  status: ('A' for Active; 'I' for Inactive)
REMARK    1  A    between atoms: C1_1  and  C2_2 
REMARK    2  A    between atoms: C7_7  and  C8_8 
ROOT
ATOM      1  C2  <0> d           0.002  -0.004   0.002  0.00  0.00    -0.049 A 
ATOM      2  C3  <0> d           0.006  -0.689  -1.196  0.00  0.00    -0.076 A 
ATOM      3  C4  <0> d           0.024  -2.072  -1.207  0.00  0.00    -0.080 A 
ATOM      4  C5  <0> d           0.039  -2.779  -0.018  0.00  0.00    -0.045 A 
ATOM      5  C6  <0> d           0.036  -2.107   1.189  0.00  0.00     0.127 A 
ATOM      6  C7  <0> d           0.023  -0.709   1.205  0.00  0.00     0.008 A 
ATOM      7  F1  <0> d           0.051  -2.798   2.349  0.00  0.00    -0.205 F 
ATOM      8  H4  <0> d          -0.006  -0.143  -2.128  0.00  0.00     0.084 H 
ATOM      9  H5  <0> d           0.026  -2.602  -2.148  0.00  0.00     0.083 H 
ATOM     10  H6  <0> d           0.053  -3.859  -0.034  0.00  0.00     0.088 H 
ENDROOT
BRANCH   6  11
ATOM     11  C8  <0> d           0.026   0.018   2.492  0.00  0.00    -0.079 C 
ATOM     12  C9  <0> d          -0.840  -0.310   3.441  0.00  0.00    -0.120 C 
ATOM     13  H8  <0> d          -1.548  -1.108   3.273  0.00  0.00     0.066 H 
ATOM     14  H9  <0> d          -0.838   0.222   4.381  0.00  0.00     0.066 H 
ATOM     15  H7  <0> d           0.734   0.817   2.659  0.00  0.00     0.083 H 
ENDBRANCH   6  11
BRANCH   1  16
ATOM     16  C1  <0> d          -0.018   1.503   0.010  0.00  0.00    -0.050 C 
ATOM     17  H1  <0> d           1.004   1.880   0.003  0.00  0.00     0.033 H 
ATOM     18  H2  <0> d          -0.545   1.864  -0.873  0.00  0.00     0.033 H 
ATOM     19  H3  <0> d          -0.529   1.854   0.907  0.00  0.00     0.033 H 
ENDBRANCH   1  16
TORSDOF 2
