REMARK  0 active torsions:
REMARK  status: ('A' for Active; 'I' for Inactive)
ROOT
ATOM      1  C1  <0> d          -0.019   1.567   0.011  0.00  0.00    -0.051 C 
ATOM      2  C2  <0> d           1.511   1.840  -0.003  0.00  0.00    -0.039 A 
ATOM      3  H1  <0> d           1.888   2.862   0.023  0.00  0.00     0.041 H 
ATOM      4  C3  <0> d           2.133   0.713  -0.844  0.00  0.00    -0.039 A 
ATOM      5  H2  <0> d           3.030   0.802  -1.457  0.00  0.00     0.041 H 
ATOM      6  C4  <0> d           2.143   0.668   0.768  0.00  0.00     0.012 A 
ATOM      7  C5  <0> d           0.958  -0.230   1.203  0.00  0.00     0.136 C 
ATOM      8  O1  <0> d           0.818  -0.909   2.192  0.00  0.00    -0.297 OA
ATOM      9  C6  <0> d           0.002  -0.004   0.002  0.00  0.00     0.005 C 
ATOM     10  C7  <0> d           0.923  -0.169  -1.327  0.00  0.00    -0.051 C 
ATOM     11  H3  <0> d          -0.485   1.953   0.917  0.00  0.00     0.034 H 
ATOM     12  H4  <0> d          -0.502   1.963  -0.882  0.00  0.00     0.034 H 
ATOM     13  H5  <0> d           3.049   0.725   1.371  0.00  0.00     0.053 H 
ATOM     14  H6  <0> d          -0.956  -0.523   0.023  0.00  0.00     0.051 H 
ATOM     15  H7  <0> d           0.465   0.239  -2.228  0.00  0.00     0.034 H 
ATOM     16  H8  <0> d           1.215  -1.210  -1.465  0.00  0.00     0.034 H 
ENDROOT
TORSDOF 0
