REMARK  4 active torsions:
REMARK  status: ('A' for Active; 'I' for Inactive)
REMARK    1  A    between atoms: C1_1  and  C2_2 
REMARK    2  A    between atoms: C6_6  and  C8_9 
REMARK    3  A    between atoms: C7_7  and  N1_8 
REMARK    4  A    between atoms: C8_9  and  C9_11 
ROOT
ATOM      1  C2  <0> d           2.312  -0.141  -0.010  0.00  0.00    -0.035 A 
ATOM      2  C3  <0> d           1.042  -0.680  -0.023  0.00  0.00    -0.075 A 
ATOM      3  C4  <0> d          -0.072   0.144  -0.019  0.00  0.00    -0.081 A 
ATOM      4  C5  <0> d           0.074   1.513  -0.002  0.00  0.00    -0.067 A 
ATOM      5  C6  <0> d           1.355   2.078   0.012  0.00  0.00     0.036 A 
ATOM      6  C7  <0> d           2.483   1.237   0.008  0.00  0.00     0.045 A 
ATOM      7  H4  <0> d           0.915  -1.753  -0.037  0.00  0.00     0.084 H 
ATOM      8  H5  <0> d          -1.061  -0.290  -0.029  0.00  0.00     0.083 H 
ATOM      9  H6  <0> d          -0.798   2.150  -0.003  0.00  0.00     0.085 H 
ENDROOT
BRANCH   5  10
ATOM     10  C8  <0> d           1.520   3.535   0.030  0.00  0.00     0.158 C 
ATOM     11  O1  <0> d           2.627   4.022  -0.062  0.00  0.00    -0.293 OA
BRANCH  10  12
ATOM     12  C9  <0> d           0.313   4.428   0.164  0.00  0.00    -0.017 C 
ATOM     13  H9  <0> d           0.135   4.604   1.132  0.00  0.00     0.038 H 
ATOM     14  H10 <0> d           0.501   5.372  -0.348  0.00  0.00     0.038 H 
ATOM     15  H11 <0> d          -0.552   3.939  -0.282  0.00  0.00     0.038 H 
ENDBRANCH  10  12
ENDBRANCH   5  10
BRANCH   6  16
ATOM     16  N1  <0> d           3.759   1.782   0.021  0.00  0.00    -0.398 N 
ATOM     17  H7  <0> d           4.533   1.202   0.100  0.00  0.00     0.156 HD
ATOM     18  H8  <0> d           3.877   2.742  -0.047  0.00  0.00     0.156 HD
ENDBRANCH   6  16
BRANCH   1  19
ATOM     19  C1  <0> d           3.515  -1.049  -0.014  0.00  0.00    -0.049 C 
ATOM     20  H1  <0> d           3.811  -1.255  -1.043  0.00  0.00     0.033 H 
ATOM     21  H2  <0> d           4.338  -0.563   0.510  0.00  0.00     0.033 H 
ATOM     22  H3  <0> d           3.267  -1.984   0.487  0.00  0.00     0.033 H 
ENDBRANCH   1  19
TORSDOF 4
