REMARK  5 active torsions:
REMARK  status: ('A' for Active; 'I' for Inactive)
REMARK    1  A    between atoms: C1_1  and  C2_2 
REMARK    2  A    between atoms: C2_2  and  C3_3 
REMARK    3  A    between atoms: C3_3  and  C4_4 
REMARK    4  A    between atoms: C4_4  and  C5_5 
REMARK    5  A    between atoms: C6_6  and  C7_7 
ROOT
ATOM      1  C7  <0> d           2.622  -3.325  -4.575  0.00  0.00    -0.026 C 
ATOM      2  C8  <0> d           3.171  -3.703  -5.541  0.00  0.00    -0.141 C 
ATOM      3  H10 <0> d           3.663  -4.042  -6.405  0.00  0.00     0.167 H 
ENDROOT
BRANCH   1   4
ATOM      4  C6  <0> d           1.978  -2.881  -3.442  0.00  0.00    -0.016 C 
ATOM      5  C5  <0> d           1.428  -2.502  -2.476  0.00  0.00    -0.093 C 
BRANCH   5   6
ATOM      6  C4  <0> d           0.739  -2.027  -1.265  0.00  0.00    -0.008 C 
ATOM      7  H8  <0> d           1.266  -2.388  -0.382  0.00  0.00     0.051 H 
ATOM      8  H9  <0> d          -0.284  -2.405  -1.258  0.00  0.00     0.051 H 
BRANCH   6   9
ATOM      9  C3  <0> d           0.718  -0.497  -1.257  0.00  0.00    -0.056 C 
ATOM     10  H6  <0> d           0.191  -0.136  -2.140  0.00  0.00     0.034 H 
ATOM     11  H7  <0> d           1.741  -0.120  -1.264  0.00  0.00     0.034 H 
BRANCH   9  12
ATOM     12  C2  <0> d           0.002  -0.004   0.002  0.00  0.00    -0.068 C 
ATOM     13  H4  <0> d           0.529  -0.365   0.885  0.00  0.00     0.032 H 
ATOM     14  H5  <0> d          -1.020  -0.381   0.010  0.00  0.00     0.032 H 
BRANCH  12  15
ATOM     15  C1  <0> d          -0.019   1.526   0.010  0.00  0.00    -0.076 C 
ATOM     16  H1  <0> d           1.004   1.903   0.003  0.00  0.00     0.027 H 
ATOM     17  H2  <0> d          -0.546   1.887  -0.873  0.00  0.00     0.027 H 
ATOM     18  H3  <0> d          -0.529   1.877   0.907  0.00  0.00     0.027 H 
ENDBRANCH  12  15
ENDBRANCH   9  12
ENDBRANCH   6   9
ENDBRANCH   5   6
ENDBRANCH   1   4
TORSDOF 5
