REMARK  2 active torsions:
REMARK  status: ('A' for Active; 'I' for Inactive)
REMARK    1  A    between atoms: C1_1  and  C2_2 
REMARK    2  A    between atoms: C2_2  and  N1_3 
REMARK       I    between atoms: N1_3  and  C3_4 
REMARK       I    between atoms: C3_4  and  N2_6 
ROOT
ATOM      1  C2  <0> d           2.422   1.186  -0.015  0.00  0.00    -0.006 C 
ATOM      2  H4  <0> d           2.497   0.556   0.871  0.00  0.00     0.063 H 
ATOM      3  H5  <0> d           2.480   0.565  -0.909  0.00  0.00     0.063 H 
ENDROOT
BRANCH   1   4
ATOM      4  C1  <0> d           3.571   2.196  -0.020  0.00  0.00    -0.061 C 
ATOM      5  H1  <0> d           3.497   2.827  -0.906  0.00  0.00     0.029 H 
ATOM      6  H2  <0> d           3.514   2.817   0.874  0.00  0.00     0.029 H 
ATOM      7  H3  <0> d           4.522   1.664  -0.032  0.00  0.00     0.029 H 
ENDBRANCH   1   4
BRANCH   1   8
ATOM      8  N1  <0> d           1.143   1.901   0.001  0.00  0.00    -0.344 N 
ATOM      9  C3  <0> d          -0.014   1.212   0.009  0.00  0.00     0.313 C 
ATOM     10  O1  <0> d           0.002  -0.004   0.002  0.00  0.00    -0.248 OA
ATOM     11  N2  <0> d          -1.191   1.870   0.018  0.00  0.00    -0.352 N 
ATOM     12  H7  <0> d          -2.024   1.373   0.019  0.00  0.00     0.160 HD
ATOM     13  H8  <0> d          -1.204   2.840   0.023  0.00  0.00     0.160 HD
ATOM     14  H6  <0> d           1.130   2.871   0.007  0.00  0.00     0.164 HD
ENDBRANCH   1   8
TORSDOF 2
