REMARK  5 active torsions:
REMARK  status: ('A' for Active; 'I' for Inactive)
REMARK    1  A    between atoms: C1_1  and  C2_2 
REMARK    2  A    between atoms: C4_4  and  N1_11 
REMARK    3  A    between atoms: C6_6  and  C9_10 
REMARK    4  A    between atoms: C7_7  and  O1_8 
REMARK    5  A    between atoms: O1_8  and  C8_9 
ROOT
ATOM      1  C2  <0> d          -1.218   1.750   0.017  0.00  0.00    -0.026 A 
ATOM      2  C3  <0> d          -0.013   1.076   0.008  0.00  0.00    -0.049 A 
ATOM      3  C4  <0> d           1.180   1.787   0.000  0.00  0.00     0.026 A 
ATOM      4  C5  <0> d           1.160   3.175   0.007  0.00  0.00    -0.049 A 
ATOM      5  C6  <0> d          -0.046   3.848   0.022  0.00  0.00    -0.026 A 
ATOM      6  C7  <0> d          -1.237   3.137   0.030  0.00  0.00     0.080 A 
ATOM      7  H4  <0> d           0.002  -0.004   0.002  0.00  0.00     0.087 H 
ATOM      8  H5  <0> d           2.088   3.729   0.001  0.00  0.00     0.087 H 
ENDROOT
BRANCH   6   9
ATOM      9  O1  <0> d          -2.424   3.800   0.045  0.00  0.00    -0.355 OA
BRANCH   9  10
ATOM     10  C8  <0> d          -3.002   4.124  -1.221  0.00  0.00     0.010 C 
ATOM     11  H6  <0> d          -2.318   4.761  -1.782  0.00  0.00     0.066 H 
ATOM     12  H7  <0> d          -3.186   3.207  -1.782  0.00  0.00     0.066 H 
ATOM     13  H8  <0> d          -3.944   4.650  -1.067  0.00  0.00     0.066 H 
ENDBRANCH   9  10
ENDBRANCH   6   9
BRANCH   1  14
ATOM     14  C1  <0> d          -2.513   0.979   0.019  0.00  0.00    -0.049 C 
ATOM     15  H1  <0> d          -2.820   0.788   1.047  0.00  0.00     0.033 H 
ATOM     16  H2  <0> d          -3.283   1.561  -0.488  0.00  0.00     0.033 H 
ATOM     17  H3  <0> d          -2.372   0.031  -0.500  0.00  0.00     0.033 H 
ENDBRANCH   1  14
BRANCH   5  18
ATOM     18  C9  <0> d          -0.068   5.355   0.029  0.00  0.00    -0.049 C 
ATOM     19  H9  <0> d          -0.083   5.723  -0.996  0.00  0.00     0.033 H 
ATOM     20  H10 <0> d          -0.958   5.702   0.553  0.00  0.00     0.033 H 
ATOM     21  H11 <0> d           0.822   5.729   0.537  0.00  0.00     0.033 H 
ENDBRANCH   5  18
BRANCH   3  22
ATOM     22  N1  <0> d           2.402   1.104  -0.014  0.00  0.00    -0.399 N 
ATOM     23  H12 <0> d           2.416   0.134  -0.019  0.00  0.00     0.156 HD
ATOM     24  H13 <0> d           3.235   1.601  -0.019  0.00  0.00     0.156 HD
ENDBRANCH   3  22
TORSDOF 5
