REMARK  4 active torsions:
REMARK  status: ('A' for Active; 'I' for Inactive)
REMARK    1  A    between atoms: C1_1  and  C2_2 
REMARK    2  A    between atoms: C4_4  and  C5_8 
REMARK    3  A    between atoms: C5_8  and  O2_10 
REMARK    4  A    between atoms: O2_10  and  C6_11 
ROOT
ATOM      1  C2  <0> d           0.002  -0.004   0.002  0.00  0.00     0.026 A 
ATOM      2  C3  <0> d           0.008  -0.801  -1.092  0.00  0.00    -0.025 A 
ATOM      3  C4  <0> d           0.028  -2.126  -0.595  0.00  0.00     0.153 A 
ATOM      4  N1  <0> d           0.033  -2.043   0.721  0.00  0.00    -0.169 NA
ATOM      5  N2  <0> d           0.024  -0.811   1.085  0.00  0.00    -0.282 N 
ATOM      6  H1  <0> d           0.029  -0.504   2.005  0.00  0.00     0.189 HD
ATOM      7  H5  <0> d          -0.001  -0.491  -2.127  0.00  0.00     0.090 H 
ENDROOT
BRANCH   3   8
ATOM      8  C5  <0> d           0.041  -3.365  -1.397  0.00  0.00     0.313 C 
ATOM      9  O1  <0> d           0.034  -3.303  -2.610  0.00  0.00    -0.257 OA
BRANCH   8  10
ATOM     10  O2  <0> d           0.060  -4.564  -0.783  0.00  0.00    -0.321 OA
BRANCH  10  11
ATOM     11  C6  <0> d           0.072  -5.721  -1.622  0.00  0.00     0.013 C 
ATOM     12  H6  <0> d          -0.821  -5.726  -2.247  0.00  0.00     0.067 H 
ATOM     13  H7  <0> d           0.958  -5.702  -2.255  0.00  0.00     0.067 H 
ATOM     14  H8  <0> d           0.087  -6.619  -1.002  0.00  0.00     0.067 H 
ENDBRANCH  10  11
ENDBRANCH   8  10
ENDBRANCH   3   8
BRANCH   1  15
ATOM     15  C1  <0> d          -0.018   1.503   0.010  0.00  0.00    -0.036 C 
ATOM     16  H2  <0> d           1.004   1.880   0.003  0.00  0.00     0.035 H 
ATOM     17  H3  <0> d          -0.545   1.864  -0.873  0.00  0.00     0.035 H 
ATOM     18  H4  <0> d          -0.529   1.854   0.907  0.00  0.00     0.035 H 
ENDBRANCH   1  15
TORSDOF 4
