REMARK  1 active torsions:
REMARK  status: ('A' for Active; 'I' for Inactive)
REMARK    1  A    between atoms: C3_3  and  C7_8 
REMARK       I    between atoms: C7_8  and  N1_10 
ROOT
ATOM      1  C1  <0> d           1.177   1.781   0.000  0.00  0.00    -0.080 A 
ATOM      2  C2  <0> d           1.166   3.160   0.007  0.00  0.00    -0.068 A 
ATOM      3  C3  <0> d          -0.050   3.846   0.023  0.00  0.00     0.033 A 
ATOM      4  C4  <0> d          -1.248   3.129   0.031  0.00  0.00    -0.047 A 
ATOM      5  C5  <0> d          -1.223   1.749   0.017  0.00  0.00     0.035 A 
ATOM      6  C6  <0> d          -0.013   1.076   0.008  0.00  0.00    -0.062 A 
ATOM      7 Cl1  <0> d          -2.711   0.855   0.020  0.00  0.00    -0.084 Cl
ATOM      8  H1  <0> d           2.118   1.250  -0.011  0.00  0.00     0.083 H 
ATOM      9  H2  <0> d           2.096   3.709   0.001  0.00  0.00     0.085 H 
ATOM     10  H3  <0> d          -2.192   3.654   0.043  0.00  0.00     0.087 H 
ATOM     11  H4  <0> d           0.002  -0.004   0.002  0.00  0.00     0.086 H 
ENDROOT
BRANCH   3  12
ATOM     12  C7  <0> d          -0.069   5.324   0.031  0.00  0.00     0.249 C 
ATOM     13  O1  <0> d           0.976   5.945   0.024  0.00  0.00    -0.268 OA
ATOM     14  N1  <0> d          -1.244   5.983   0.046  0.00  0.00    -0.366 N 
ATOM     15  H5  <0> d          -2.078   5.487   0.051  0.00  0.00     0.159 HD
ATOM     16  H6  <0> d          -1.257   6.953   0.051  0.00  0.00     0.159 HD
ENDBRANCH   3  12
TORSDOF 1
