REMARK  1 active torsions:
REMARK  status: ('A' for Active; 'I' for Inactive)
REMARK    1  A    between atoms: C4_4  and  N2_7 
ROOT
ATOM      1  C1  <0> d          -2.192   2.990   2.452  0.00  0.00     0.009 A 
ATOM      2  C2  <0> d          -1.605   2.608   1.253  0.00  0.00    -0.032 A 
ATOM      3  C3  <0> d          -0.708   1.567   1.251  0.00  0.00    -0.023 A 
ATOM      4  C4  <0> d          -0.421   0.931   2.465  0.00  0.00     0.050 A 
ATOM      5  C5  <0> d          -1.051   1.369   3.622  0.00  0.00     0.028 A 
ATOM      6  N1  <0> d          -1.905   2.373   3.579  0.00  0.00    -0.270 NA
ATOM      7  C6  <0> d          -0.013   1.086   0.008  0.00  0.00    -0.038 C 
ATOM      8  C7  <0> d          -0.744   1.588  -1.237  0.00  0.00    -0.061 C 
ATOM      9  C8  <0> d          -0.951   3.101  -1.100  0.00  0.00    -0.061 C 
ATOM     10  C9  <0> d          -1.981   3.352   0.000  0.00  0.00    -0.039 C 
ATOM     11  H1  <0> d          -2.897   3.808   2.460  0.00  0.00     0.115 H 
ATOM     12  H2  <0> d          -0.840   0.885   4.563  0.00  0.00     0.118 H 
ATOM     13  H5  <0> d           0.002  -0.004   0.002  0.00  0.00     0.040 H 
ATOM     14  H6  <0> d           1.011   1.460   0.000  0.00  0.00     0.040 H 
ATOM     15  H7  <0> d          -0.145   1.379  -2.123  0.00  0.00     0.033 H 
ATOM     16  H8  <0> d          -1.709   1.089  -1.321  0.00  0.00     0.033 H 
ATOM     17  H9  <0> d          -0.007   3.577  -0.834  0.00  0.00     0.033 H 
ATOM     18  H10 <0> d          -1.313   3.508  -2.044  0.00  0.00     0.033 H 
ATOM     19  H11 <0> d          -2.026   4.420   0.215  0.00  0.00     0.040 H 
ATOM     20  H12 <0> d          -2.960   3.014  -0.339  0.00  0.00     0.040 H 
ENDROOT
BRANCH   4  21
ATOM     21  N2  <0> d           0.484  -0.132   2.512  0.00  0.00    -0.397 N 
ATOM     22  H3  <0> d           0.675  -0.569   3.357  0.00  0.00     0.156 HD
ATOM     23  H4  <0> d           0.920  -0.433   1.700  0.00  0.00     0.156 HD
ENDBRANCH   4  21
TORSDOF 1
