REMARK  2 active torsions:
REMARK  status: ('A' for Active; 'I' for Inactive)
REMARK    1  A    between atoms: C1_1  and  C2_2 
REMARK    2  A    between atoms: C5_5  and  C6_8 
ROOT
ATOM      1  C2  <0> d           0.002  -0.004   0.002  0.00  0.00     0.053 A 
ATOM      2  C3  <0> d           0.006  -0.689  -1.202  0.00  0.00    -0.055 A 
ATOM      3  C4  <0> d           0.025  -2.077  -1.164  0.00  0.00    -0.045 A 
ATOM      4  C5  <0> d           0.040  -2.697   0.089  0.00  0.00     0.155 A 
ATOM      5  N1  <0> d           0.035  -1.953   1.190  0.00  0.00    -0.143 NA
ATOM      6  N2  <0> d           0.022  -0.670   1.144  0.00  0.00    -0.155 NA
ATOM      7  H4  <0> d          -0.006  -0.159  -2.143  0.00  0.00     0.086 H 
ATOM      8  H5  <0> d           0.029  -2.659  -2.074  0.00  0.00     0.087 H 
ENDROOT
BRANCH   1   9
ATOM      9  C1  <0> d          -0.018   1.503   0.010  0.00  0.00    -0.034 C 
ATOM     10  H1  <0> d           1.004   1.880   0.003  0.00  0.00     0.035 H 
ATOM     11  H2  <0> d          -0.545   1.864  -0.873  0.00  0.00     0.035 H 
ATOM     12  H3  <0> d          -0.529   1.854   0.907  0.00  0.00     0.035 H 
ENDBRANCH   1   9
BRANCH   4  13
ATOM     13  C6  <0> d           0.060  -4.173   0.188  0.00  0.00     0.230 C 
ATOM     14  O1  <0> d           0.065  -4.854  -0.827  0.00  0.00    -0.643 OA
ATOM     15  O2  <0> d           0.073  -4.711   1.286  0.00  0.00    -0.643 OA
ENDBRANCH   4  13
TORSDOF 2
