REMARK  2 active torsions:
REMARK  status: ('A' for Active; 'I' for Inactive)
REMARK    1  A    between atoms: C1_1  and  S1_2 
REMARK    2  A    between atoms: S1_2  and  C2_3 
ROOT
ATOM      1  C2  <0> d           0.099   1.013   2.823  0.00  0.00     0.021 A 
ATOM      2  C3  <0> d           1.218   0.236   2.551  0.00  0.00    -0.065 A 
ATOM      3  C4  <0> d           1.971  -0.275   3.590  0.00  0.00    -0.082 A 
ATOM      4  C5  <0> d           1.607  -0.022   4.900  0.00  0.00    -0.081 A 
ATOM      5  C6  <0> d           0.490   0.746   5.175  0.00  0.00    -0.061 A 
ATOM      6  C7  <0> d          -0.265   1.264   4.141  0.00  0.00     0.050 A 
ATOM      7 Cl1  <0> d          -1.667   2.228   4.487  0.00  0.00    -0.083 Cl
ATOM      8  H4  <0> d           1.502   0.035   1.529  0.00  0.00     0.085 H 
ATOM      9  H5  <0> d           2.844  -0.876   3.379  0.00  0.00     0.083 H 
ATOM     10  H6  <0> d           2.195  -0.427   5.710  0.00  0.00     0.083 H 
ATOM     11  H7  <0> d           0.209   0.941   6.200  0.00  0.00     0.086 H 
ENDROOT
BRANCH   1  12
ATOM     12  S1  <0> d          -0.862   1.671   1.500  0.00  0.00    -0.133 SA
BRANCH  12  13
ATOM     13  C1  <0> d          -0.013   1.086   0.008  0.00  0.00    -0.030 C 
ATOM     14  H1  <0> d           0.002  -0.004   0.002  0.00  0.00     0.042 H 
ATOM     15  H2  <0> d           1.010   1.463   0.000  0.00  0.00     0.042 H 
ATOM     16  H3  <0> d          -0.540   1.447  -0.875  0.00  0.00     0.042 H 
ENDBRANCH  12  13
ENDBRANCH   1  12
TORSDOF 2
