REMARK  3 active torsions:
REMARK  status: ('A' for Active; 'I' for Inactive)
REMARK    1  A    between atoms: C4_5  and  N2_9 
REMARK    2  A    between atoms: C5_6  and  C6_7 
REMARK    3  A    between atoms: C6_7  and  O1_8 
ROOT
ATOM      1  C1  <0> d           1.230  -0.645  -0.013  0.00  0.00    -0.056 A 
ATOM      2  C2  <0> d           2.387   0.112  -0.020  0.00  0.00     0.003 A 
ATOM      3  N1  <0> d           2.335   1.429  -0.013  0.00  0.00    -0.271 NA
ATOM      4  C3  <0> d           1.188   2.079   0.002  0.00  0.00     0.028 A 
ATOM      5  C4  <0> d          -0.017   1.389   0.010  0.00  0.00     0.051 A 
ATOM      6  C5  <0> d           0.002  -0.004   0.002  0.00  0.00    -0.006 A 
ATOM      7  H1  <0> d           1.282  -1.724  -0.019  0.00  0.00     0.086 H 
ATOM      8  H2  <0> d           3.347  -0.384  -0.032  0.00  0.00     0.114 H 
ATOM      9  H3  <0> d           1.186   3.159   0.007  0.00  0.00     0.118 H 
ENDROOT
BRANCH   6  10
ATOM     10  C6  <0> d          -1.281  -0.794   0.009  0.00  0.00     0.043 C 
ATOM     11  H4  <0> d          -1.852  -0.551   0.906  0.00  0.00     0.081 H 
ATOM     12  H5  <0> d          -1.868  -0.542  -0.874  0.00  0.00     0.081 H 
BRANCH  10  13
ATOM     13  O1  <0> d          -0.981  -2.191  -0.001  0.00  0.00    -0.396 OA
ATOM     14  H6  <0> d          -1.762  -2.761   0.003  0.00  0.00     0.209 HD
ENDBRANCH  10  13
ENDBRANCH   6  10
BRANCH   5  15
ATOM     15  N2  <0> d          -1.230   2.081   0.019  0.00  0.00    -0.397 N 
ATOM     16  H7  <0> d          -2.068   1.592   0.021  0.00  0.00     0.156 HD
ATOM     17  H8  <0> d          -1.235   3.051   0.025  0.00  0.00     0.156 HD
ENDBRANCH   5  15
TORSDOF 3
