REMARK  5 active torsions:
REMARK  status: ('A' for Active; 'I' for Inactive)
REMARK    1  A    between atoms: C1_1  and  C2_2 
REMARK    2  A    between atoms: C2_2  and  O1_3 
REMARK    3  A    between atoms: O1_3  and  C3_4 
REMARK    4  A    between atoms: C3_4  and  C4_6 
REMARK    5  A    between atoms: C5_7  and  C6_8 
ROOT
ATOM      1  O1  <0> d          -1.194   2.086   0.019  0.00  0.00    -0.311 OA
ENDROOT
BRANCH   1   2
ATOM      2  C2  <0> d          -1.137   3.537   0.027  0.00  0.00     0.026 C 
ATOM      3  H4  <0> d          -0.606   3.875   0.916  0.00  0.00     0.074 H 
ATOM      4  H5  <0> d          -0.614   3.885  -0.864  0.00  0.00     0.074 H 
BRANCH   2   5
ATOM      5  C1  <0> d          -2.559   4.102   0.036  0.00  0.00    -0.056 C 
ATOM      6  H1  <0> d          -3.082   3.754   0.927  0.00  0.00     0.030 H 
ATOM      7  H2  <0> d          -2.517   5.191   0.042  0.00  0.00     0.030 H 
ATOM      8  H3  <0> d          -3.091   3.764  -0.853  0.00  0.00     0.030 H 
ENDBRANCH   2   5
ENDBRANCH   1   2
BRANCH   1   9
ATOM      9  C3  <0> d          -0.017   1.428   0.010  0.00  0.00     0.339 C 
ATOM     10  O2  <0> d           1.027   2.050   0.003  0.00  0.00    -0.249 OA
BRANCH   9  11
ATOM     11  C4  <0> d           0.002  -0.004   0.002  0.00  0.00     0.002 C 
ATOM     12  C5  <0> d           0.018  -1.178  -0.004  0.00  0.00    -0.100 C 
BRANCH  12  13
ATOM     13  C6  <0> d           0.038  -2.650  -0.013  0.00  0.00    -0.021 C 
ATOM     14  H6  <0> d          -0.985  -3.027  -0.005  0.00  0.00     0.044 H 
ATOM     15  H7  <0> d           0.548  -3.001  -0.909  0.00  0.00     0.044 H 
ATOM     16  H8  <0> d           0.565  -3.011   0.871  0.00  0.00     0.044 H 
ENDBRANCH  12  13
ENDBRANCH   9  11
ENDBRANCH   1   9
TORSDOF 5
