REMARK  0 active torsions:
REMARK  status: ('A' for Active; 'I' for Inactive)
ROOT
ATOM      1  C1  <0> d           1.174   1.794   0.001  0.00  0.00    -0.076 A 
ATOM      2  C2  <0> d           1.108   3.178   0.008  0.00  0.00    -0.027 A 
ATOM      3  C3  <0> d          -0.131   3.795   0.023  0.00  0.00     0.211 A 
ATOM      4  N1  <0> d          -1.241   3.079   0.029  0.00  0.00    -0.208 NA
ATOM      5  C4  <0> d          -1.215   1.759   0.017  0.00  0.00     0.129 A 
ATOM      6  C5  <0> d          -0.013   1.076   0.008  0.00  0.00    -0.044 A 
ATOM      7 Cl1  <0> d          -2.707   0.871   0.019  0.00  0.00    -0.062 Cl
ATOM      8  F1  <0> d          -0.206   5.144   0.031  0.00  0.00    -0.184 F 
ATOM      9  H1  <0> d           2.127   1.286  -0.011  0.00  0.00     0.083 H 
ATOM     10  H2  <0> d           2.013   3.768   0.002  0.00  0.00     0.090 H 
ATOM     11  H3  <0> d           0.002  -0.004   0.002  0.00  0.00     0.088 H 
ENDROOT
TORSDOF 0
