REMARK  1 active torsions:
REMARK  status: ('A' for Active; 'I' for Inactive)
REMARK    1  A    between atoms: C4_5  and  O2_11 
ROOT
ATOM      1  C1  <0> d          -0.826   1.631  -1.194  0.00  0.00    -0.038 C 
ATOM      2  C2  <0> d          -0.013   1.086   0.008  0.00  0.00    -0.036 C 
ATOM      3  C3  <0> d          -0.807   1.620   1.238  0.00  0.00     0.064 C 
ATOM      4  H1  <0> d          -0.649   1.075   2.168  0.00  0.00     0.087 H 
ATOM      5  C4  <0> d          -0.511   3.150   1.285  0.00  0.00     0.063 C 
ATOM      6  H2  <0> d          -0.862   3.581   2.223  0.00  0.00     0.087 H 
ATOM      7  C5  <0> d          -1.333   3.704   0.065  0.00  0.00    -0.015 C 
ATOM      8  C6  <0> d          -1.986   2.408  -0.502  0.00  0.00     0.041 C 
ATOM      9  H3  <0> d          -2.875   2.562  -1.113  0.00  0.00     0.083 H 
ATOM     10  O1  <0> d          -2.180   1.610   0.712  0.00  0.00    -0.378 OA
ATOM     11  H4  <0> d          -0.217   2.303  -1.799  0.00  0.00     0.036 H 
ATOM     12  H5  <0> d          -1.213   0.812  -1.801  0.00  0.00     0.036 H 
ATOM     13  H6  <0> d           0.002  -0.004   0.002  0.00  0.00     0.037 H 
ATOM     14  H7  <0> d           1.002   1.484   0.001  0.00  0.00     0.037 H 
ATOM     15  H8  <0> d          -0.680   4.164  -0.677  0.00  0.00     0.040 H 
ATOM     16  H9  <0> d          -2.096   4.406   0.400  0.00  0.00     0.040 H 
ENDROOT
BRANCH   5  17
ATOM     17  O2  <0> d           0.883   3.402   1.104  0.00  0.00    -0.393 OA
ATOM     18  H10 <0> d           1.119   4.339   1.125  0.00  0.00     0.210 HD
ENDBRANCH   5  17
TORSDOF 1
