REMARK  4 active torsions:
REMARK  status: ('A' for Active; 'I' for Inactive)
REMARK    1  A    between atoms: C1_1  and  C2_2 
REMARK    2  A    between atoms: C2_2  and  C3_4 
REMARK    3  A    between atoms: C2_2  and  N1_6 
REMARK    4  A    between atoms: C3_4  and  O1_5 
ROOT
ATOM      1  C2  <0> d           1.145   3.085   0.008  0.00  0.00     0.034 C 
ATOM      2  H1  <0> d           0.516   3.397  -0.827  0.00  0.00     0.076 H 
ENDROOT
BRANCH   1   3
ATOM      3  C1  <0> d           0.503   3.530   1.324  0.00  0.00    -0.055 C 
ATOM      4  H2  <0> d           1.132   3.218   2.158  0.00  0.00     0.030 H 
ATOM      5  H3  <0> d           0.402   4.615   1.330  0.00  0.00     0.030 H 
ATOM      6  H4  <0> d          -0.482   3.073   1.420  0.00  0.00     0.030 H 
ENDBRANCH   1   3
BRANCH   1   7
ATOM      7  C3  <0> d           1.286   1.562  -0.002  0.00  0.00     0.036 C 
ATOM      8  H5  <0> d           1.840   1.243   0.881  0.00  0.00     0.077 H 
ATOM      9  H6  <0> d           1.823   1.252  -0.899  0.00  0.00     0.077 H 
BRANCH   7  10
ATOM     10  O1  <0> d          -0.011   0.963   0.007  0.00  0.00    -0.399 OA
ATOM     11  H7  <0> d           0.002  -0.004   0.002  0.00  0.00     0.209 HD
ENDBRANCH   7  10
ENDBRANCH   1   7
BRANCH   1  12
ATOM     12  N1  <0> d           2.469   3.699  -0.122  0.00  0.00    -0.344 N 
ATOM     13  C6  <0> d           3.510   3.544   0.723  0.00  0.00     0.066 A 
ATOM     14  N2  <0> d           4.518   4.245   0.279  0.00  0.00    -0.255 NA
ATOM     15  H10 <0> d           3.510   2.940   1.618  0.00  0.00     0.143 H 
ATOM     16  C5  <0> d           4.159   4.866  -0.855  0.00  0.00     0.018 A 
ATOM     17  C4  <0> d           2.882   4.533  -1.126  0.00  0.00    -0.002 A 
ATOM     18  H9  <0> d           4.785   5.516  -1.448  0.00  0.00     0.117 H 
ATOM     19  H8  <0> d           2.297   4.863  -1.971  0.00  0.00     0.113 H 
ENDBRANCH   1  12
TORSDOF 4
