REMARK  3 active torsions:
REMARK  status: ('A' for Active; 'I' for Inactive)
REMARK    1  A    between atoms: C1_1  and  C2_2 
REMARK    2  A    between atoms: C2_2  and  C3_3 
REMARK    3  A    between atoms: C6_6  and  N2_9 
ROOT
ATOM      1  C3  <0> d           0.707  -0.490  -1.238  0.00  0.00     0.034 A 
ATOM      2  C4  <0> d           1.777  -1.359  -1.118  0.00  0.00    -0.057 A 
ATOM      3  C5  <0> d           2.421  -1.801  -2.261  0.00  0.00    -0.054 A 
ATOM      4  C6  <0> d           1.961  -1.350  -3.496  0.00  0.00     0.043 A 
ATOM      5  C7  <0> d           0.880  -0.478  -3.535  0.00  0.00     0.028 A 
ATOM      6  N1  <0> d           0.293  -0.085  -2.422  0.00  0.00    -0.263 NA
ATOM      7  H6  <0> d           2.106  -1.687  -0.143  0.00  0.00     0.086 H 
ATOM      8  H7  <0> d           3.259  -2.479  -2.197  0.00  0.00     0.087 H 
ATOM      9  H8  <0> d           0.515  -0.121  -4.487  0.00  0.00     0.118 H 
ENDROOT
BRANCH   1  10
ATOM     10  C2  <0> d           0.002  -0.004   0.002  0.00  0.00    -0.028 C 
ATOM     11  H4  <0> d           0.529  -0.365   0.885  0.00  0.00     0.041 H 
ATOM     12  H5  <0> d          -1.020  -0.381   0.010  0.00  0.00     0.041 H 
BRANCH  10  13
ATOM     13  C1  <0> d          -0.019   1.526   0.010  0.00  0.00    -0.071 C 
ATOM     14  H1  <0> d           1.004   1.903   0.003  0.00  0.00     0.028 H 
ATOM     15  H2  <0> d          -0.546   1.887  -0.873  0.00  0.00     0.028 H 
ATOM     16  H3  <0> d          -0.529   1.877   0.907  0.00  0.00     0.028 H 
ENDBRANCH  10  13
ENDBRANCH   1  10
BRANCH   4  17
ATOM     17  N2  <0> d           2.577  -1.768  -4.678  0.00  0.00    -0.398 N 
ATOM     18  H9  <0> d           3.332  -2.377  -4.643  0.00  0.00     0.156 HD
ATOM     19  H10 <0> d           2.251  -1.449  -5.534  0.00  0.00     0.156 HD
ENDBRANCH   4  17
TORSDOF 3
