REMARK  4 active torsions:
REMARK  status: ('A' for Active; 'I' for Inactive)
REMARK    1  A    between atoms: C4_4  and  C7_7 
REMARK    2  A    between atoms: C4_4  and  O2_11 
REMARK    3  A    between atoms: C8_8  and  C9_9 
REMARK    4  A    between atoms: C9_9  and  O1_10 
ROOT
ATOM      1  C1  <0> d          -0.019   1.526   0.010  0.00  0.00    -0.065 C 
ATOM      2  C2  <0> d           1.417   2.055  -0.000  0.00  0.00    -0.062 C 
ATOM      3  C3  <0> d           2.157   1.548   1.239  0.00  0.00    -0.033 C 
ATOM      4  C4  <0> d           2.178   0.019   1.231  0.00  0.00     0.075 C 
ATOM      5  C5  <0> d           0.742  -0.511   1.242  0.00  0.00    -0.033 C 
ATOM      6  C6  <0> d           0.002  -0.004   0.002  0.00  0.00    -0.062 C 
ATOM      7  H1  <0> d          -0.546   1.887  -0.873  0.00  0.00     0.033 H 
ATOM      8  H2  <0> d          -0.529   1.877   0.907  0.00  0.00     0.033 H 
ATOM      9  H3  <0> d           1.927   1.704  -0.897  0.00  0.00     0.033 H 
ATOM     10  H4  <0> d           1.402   3.145   0.006  0.00  0.00     0.033 H 
ATOM     11  H5  <0> d           1.647   1.900   2.136  0.00  0.00     0.037 H 
ATOM     12  H6  <0> d           3.179   1.926   1.231  0.00  0.00     0.037 H 
ATOM     13  H7  <0> d           0.232  -0.159   2.138  0.00  0.00     0.037 H 
ATOM     14  H8  <0> d           0.757  -1.601   1.236  0.00  0.00     0.037 H 
ATOM     15  H9  <0> d          -1.020  -0.381   0.010  0.00  0.00     0.033 H 
ATOM     16  H10 <0> d           0.512  -0.356  -0.895  0.00  0.00     0.033 H 
ENDROOT
BRANCH   4  17
ATOM     17  C7  <0> d           2.906  -0.480   2.452  0.00  0.00    -0.072 C 
ATOM     18  C8  <0> d           3.980  -1.218   2.317  0.00  0.00    -0.082 C 
ATOM     19  H12 <0> d           4.343  -1.469   1.331  0.00  0.00     0.079 H 
ATOM     20  H11 <0> d           2.543  -0.230   3.437  0.00  0.00     0.081 H 
BRANCH  18  21
ATOM     21  C9  <0> d           4.709  -1.718   3.538  0.00  0.00     0.032 C 
ATOM     22  H13 <0> d           5.625  -1.142   3.675  0.00  0.00     0.080 H 
ATOM     23  H14 <0> d           4.072  -1.601   4.415  0.00  0.00     0.080 H 
BRANCH  21  24
ATOM     24  O1  <0> d           5.036  -3.098   3.366  0.00  0.00    -0.397 OA
ATOM     25  H15 <0> d           5.508  -3.487   4.116  0.00  0.00     0.209 HD
ENDBRANCH  21  24
ENDBRANCH  18  21
ENDBRANCH   4  17
BRANCH   4  26
ATOM     26  O2  <0> d           2.846  -0.442   0.055  0.00  0.00    -0.386 OA
ATOM     27  H16 <0> d           3.763  -0.144  -0.018  0.00  0.00     0.211 HD
ENDBRANCH   4  26
TORSDOF 4
