REMARK  3 active torsions:
REMARK  status: ('A' for Active; 'I' for Inactive)
REMARK    1  A    between atoms: C1_1  and  N1_2 
REMARK    2  A    between atoms: N1_2  and  C2_3 
REMARK    3  A    between atoms: N1_2  and  C3_4 
ROOT
ATOM      1  C3  <0> d           0.002  -0.004   0.002  0.00  0.00     0.723 A 
ATOM      2  N2  <0> d          -1.145  -0.666   0.015  0.00  0.00    -0.075 NA
ATOM      3  C4  <0> d          -1.163  -1.989   0.003  0.00  0.00     0.022 A 
ATOM      4  C5  <0> d           0.038  -2.681  -0.013  0.00  0.00    -0.048 A 
ATOM      5  C6  <0> d           1.220  -1.957  -0.020  0.00  0.00     0.022 A 
ATOM      6  N3  <0> d           1.167  -0.635  -0.013  0.00  0.00    -0.075 NA
ATOM      7  H7  <0> d          -2.101  -2.523   0.009  0.00  0.00     0.115 H 
ATOM      8  H8  <0> d           0.053  -3.761  -0.019  0.00  0.00     0.087 H 
ATOM      9  H9  <0> d           2.173  -2.465  -0.032  0.00  0.00     0.115 H 
ENDROOT
BRANCH   1  10
ATOM     10  N1  <0> d          -0.017   1.380   0.010  0.00  0.00    -0.223 N 
BRANCH  10  11
ATOM     11  C1  <0> d           1.242   2.130   0.002  0.00  0.00    -0.003 C 
ATOM     12  H1  <0> d           2.088   1.426  -0.005  0.00  0.00     0.057 H 
ATOM     13  H2  <0> d           1.298   2.761   0.900  0.00  0.00     0.057 H 
ATOM     14  H3  <0> d           1.285   2.764  -0.896  0.00  0.00     0.057 H 
ENDBRANCH  10  11
BRANCH  10  15
ATOM     15  C2  <0> d          -1.295   2.095   0.020  0.00  0.00    -0.003 C 
ATOM     16  H4  <0> d          -2.122   1.369   0.025  0.00  0.00     0.057 H 
ATOM     17  H5  <0> d          -1.368   2.728  -0.877  0.00  0.00     0.057 H 
ATOM     18  H6  <0> d          -1.356   2.725   0.919  0.00  0.00     0.057 H 
ENDBRANCH  10  15
ENDBRANCH   1  10
TORSDOF 3
