REMARK  5 active torsions:
REMARK  status: ('A' for Active; 'I' for Inactive)
REMARK    1  A    between atoms: C1_1  and  C2_2 
REMARK    2  A    between atoms: C2_2  and  C3_4 
REMARK    3  A    between atoms: C2_2  and  C5_9 
REMARK    4  A    between atoms: C3_4  and  C4_6 
REMARK    5  A    between atoms: C3_4  and  O2_8 
ROOT
ATOM      1  C2  <0> d          -1.483   2.728  -1.284  0.00  0.00     0.061 C 
ATOM      2  H1  <0> d          -1.458   2.041  -2.129  0.00  0.00     0.060 H 
ENDROOT
BRANCH   1   3
ATOM      3  C1  <0> d          -0.337   3.734  -1.409  0.00  0.00    -0.061 C 
ATOM      4  H3  <0> d           0.614   3.202  -1.417  0.00  0.00     0.028 H 
ATOM      5  H4  <0> d          -0.447   4.295  -2.337  0.00  0.00     0.028 H 
ATOM      6  H5  <0> d          -0.362   4.421  -0.564  0.00  0.00     0.028 H 
ENDBRANCH   1   3
BRANCH   1   7
ATOM      7  C3  <0> d          -1.329   1.940   0.019  0.00  0.00     0.131 C 
ATOM      8  H2  <0> d          -1.355   2.627   0.865  0.00  0.00     0.101 H 
BRANCH   7   9
ATOM      9  C4  <0> d          -0.014   1.204   0.009  0.00  0.00     0.203 C 
ATOM     10  O1  <0> d           0.002  -0.004   0.002  0.00  0.00    -0.646 OA
ATOM     11  O4  <0> d           1.139   1.891   0.001  0.00  0.00    -0.646 OA
ENDBRANCH   7   9
BRANCH   7  12
ATOM     12  O2  <0> d          -2.400   1.000   0.136  0.00  0.00    -0.384 OA
ATOM     13  H6  <0> d          -2.439   0.356  -0.584  0.00  0.00     0.210 HD
ENDBRANCH   7  12
ENDBRANCH   1   7
BRANCH   1  14
ATOM     14  C5  <0> d          -2.798   3.463  -1.273  0.00  0.00     0.179 C 
ATOM     15  O3  <0> d          -3.537   3.367  -0.322  0.00  0.00    -0.648 OA
ATOM     16  O5  <0> d          -3.149   4.226  -2.321  0.00  0.00    -0.648 OA
ENDBRANCH   1  14
TORSDOF 5
