REMARK  6 active torsions:
REMARK  status: ('A' for Active; 'I' for Inactive)
REMARK    1  A    between atoms: C1_1  and  C2_2 
REMARK    2  A    between atoms: C2_2  and  N1_3 
REMARK       I    between atoms: N1_3  and  C3_4 
REMARK       I    between atoms: C3_4  and  N2_6 
REMARK    3  A    between atoms: N2_6  and  C4_7 
REMARK    4  A    between atoms: C4_7  and  C5_8 
REMARK    5  A    between atoms: C5_8  and  C6_9 
REMARK    6  A    between atoms: C6_9  and  O2_10 
ROOT
ATOM      1  N1  <0> d          -1.192   2.002   0.019  0.00  0.00    -0.344 N 
ATOM      2  C3  <0> d          -0.016   1.344   0.009  0.00  0.00     0.316 C 
ATOM      3  O1  <0> d           1.028   1.966   0.003  0.00  0.00    -0.247 OA
ATOM      4  N2  <0> d           0.002  -0.004   0.002  0.00  0.00    -0.343 N 
ATOM      5  H6  <0> d          -2.026   1.505   0.020  0.00  0.00     0.164 HD
ATOM      6  H7  <0> d          -0.831  -0.500   0.007  0.00  0.00     0.164 HD
ENDROOT
BRANCH   4   7
ATOM      7  C4  <0> d           1.281  -0.719  -0.014  0.00  0.00    -0.001 C 
ATOM      8  H8  <0> d           1.840  -0.443  -0.908  0.00  0.00     0.064 H 
ATOM      9  H9  <0> d           1.857  -0.453   0.872  0.00  0.00     0.064 H 
BRANCH   7  10
ATOM     10  C5  <0> d           1.021  -2.227  -0.020  0.00  0.00    -0.031 C 
ATOM     11  H10 <0> d           0.462  -2.503   0.874  0.00  0.00     0.038 H 
ATOM     12  H11 <0> d           0.445  -2.493  -0.906  0.00  0.00     0.038 H 
BRANCH  10  13
ATOM     13  C6  <0> d           2.357  -2.974  -0.036  0.00  0.00     0.018 C 
ATOM     14  H12 <0> d           2.916  -2.698  -0.930  0.00  0.00     0.074 H 
ATOM     15  H13 <0> d           2.933  -2.708   0.850  0.00  0.00     0.074 H 
BRANCH  13  16
ATOM     16  O2  <0> d           2.115  -4.382  -0.042  0.00  0.00    -0.401 OA
ATOM     17  H14 <0> d           2.919  -4.920  -0.052  0.00  0.00     0.209 HD
ENDBRANCH  13  16
ENDBRANCH  10  13
ENDBRANCH   7  10
ENDBRANCH   4   7
BRANCH   1  18
ATOM     18  C2  <0> d          -1.212   3.466   0.027  0.00  0.00    -0.006 C 
ATOM     19  H4  <0> d          -0.699   3.832   0.916  0.00  0.00     0.063 H 
ATOM     20  H5  <0> d          -0.708   3.841  -0.864  0.00  0.00     0.063 H 
BRANCH  18  21
ATOM     21  C1  <0> d          -2.662   3.957   0.036  0.00  0.00    -0.061 C 
ATOM     22  H1  <0> d          -3.175   3.591  -0.853  0.00  0.00     0.029 H 
ATOM     23  H2  <0> d          -3.166   3.582   0.926  0.00  0.00     0.029 H 
ATOM     24  H3  <0> d          -2.676   5.047   0.042  0.00  0.00     0.029 H 
ENDBRANCH  18  21
ENDBRANCH   1  18
TORSDOF 6
