REMARK  4 active torsions:
REMARK  status: ('A' for Active; 'I' for Inactive)
REMARK    1  A    between atoms: C1_1  and  C2_2 
REMARK    2  A    between atoms: C2_2  and  C3_3 
REMARK    3  A    between atoms: C2_2  and  N1_4 
REMARK       I    between atoms: N1_4  and  C4_5 
REMARK    4  A    between atoms: C4_5  and  C5_7 
ROOT
ATOM      1  C2  <0> d          -0.013   1.086   0.008  0.00  0.00     0.005 C 
ATOM      2  H4  <0> d           0.002  -0.004   0.002  0.00  0.00     0.071 H 
ENDROOT
BRANCH   1   3
ATOM      3  C1  <0> d          -0.753   1.593  -1.232  0.00  0.00    -0.058 C 
ATOM      4  H1  <0> d          -0.242   1.241  -2.128  0.00  0.00     0.030 H 
ATOM      5  H2  <0> d          -1.775   1.215  -1.224  0.00  0.00     0.030 H 
ATOM      6  H3  <0> d          -0.767   2.683  -1.226  0.00  0.00     0.030 H 
ENDBRANCH   1   3
BRANCH   1   7
ATOM      7  C3  <0> d          -0.729   1.579   1.267  0.00  0.00    -0.058 C 
ATOM      8  H5  <0> d          -0.744   2.669   1.273  0.00  0.00     0.030 H 
ATOM      9  H6  <0> d          -1.751   1.202   1.275  0.00  0.00     0.030 H 
ATOM     10  H7  <0> d          -0.202   1.218   2.150  0.00  0.00     0.030 H 
ENDBRANCH   1   7
BRANCH   1  11
ATOM     11  N1  <0> d           1.362   1.593  -0.002  0.00  0.00    -0.358 N 
ATOM     12  C4  <0> d           2.331   0.926   0.654  0.00  0.00     0.213 C 
ATOM     13  O1  <0> d           2.066  -0.095   1.254  0.00  0.00    -0.274 OA
ATOM     14  H8  <0> d           1.574   2.409  -0.482  0.00  0.00     0.162 HD
BRANCH  12  15
ATOM     15  C5  <0> d           3.745   1.447   0.644  0.00  0.00    -0.003 C 
ATOM     16  H9  <0> d           3.890   2.121   1.488  0.00  0.00     0.040 H 
ATOM     17  H10 <0> d           4.441   0.612   0.722  0.00  0.00     0.040 H 
ATOM     18  H11 <0> d           3.927   1.985  -0.287  0.00  0.00     0.040 H 
ENDBRANCH  12  15
ENDBRANCH   1  11
TORSDOF 4
