REMARK  3 active torsions:
REMARK  status: ('A' for Active; 'I' for Inactive)
REMARK    1  A    between atoms: C1_1  and  C2_2 
REMARK    2  A    between atoms: C6_6  and  C8_9 
REMARK    3  A    between atoms: C7_7  and  N1_8 
ROOT
ATOM      1  C2  <0> d          -0.651   2.255   3.552  0.00  0.00    -0.035 A 
ATOM      2  C3  <0> d          -2.016   2.465   3.527  0.00  0.00    -0.073 A 
ATOM      3  C4  <0> d          -2.732   2.231   2.368  0.00  0.00    -0.061 A 
ATOM      4  C5  <0> d          -2.083   1.790   1.227  0.00  0.00     0.042 A 
ATOM      5  C6  <0> d          -0.718   1.572   1.248  0.00  0.00    -0.013 A 
ATOM      6  C7  <0> d           0.003   1.807   2.411  0.00  0.00     0.039 A 
ATOM      7 Cl1  <0> d          -2.985   1.503  -0.228  0.00  0.00    -0.084 Cl
ATOM      8  H4  <0> d          -2.524   2.813   4.414  0.00  0.00     0.084 H 
ATOM      9  H5  <0> d          -3.799   2.397   2.350  0.00  0.00     0.086 H 
ENDROOT
BRANCH   1  10
ATOM     10  C1  <0> d           0.129   2.511   4.816  0.00  0.00    -0.049 C 
ATOM     11  H1  <0> d           0.472   3.545   4.829  0.00  0.00     0.033 H 
ATOM     12  H2  <0> d          -0.511   2.330   5.680  0.00  0.00     0.033 H 
ATOM     13  H3  <0> d           0.988   1.842   4.855  0.00  0.00     0.033 H 
ENDBRANCH   1  10
BRANCH   6  14
ATOM     14  N1  <0> d           1.384   1.594   2.434  0.00  0.00    -0.398 N 
ATOM     15  H6  <0> d           1.839   1.282   1.637  0.00  0.00     0.156 HD
ATOM     16  H7  <0> d           1.886   1.759   3.247  0.00  0.00     0.156 HD
ENDBRANCH   6  14
BRANCH   5  17
ATOM     17  C8  <0> d          -0.013   1.086   0.008  0.00  0.00    -0.048 C 
ATOM     18  H8  <0> d           0.002  -0.004   0.002  0.00  0.00     0.033 H 
ATOM     19  H9  <0> d           1.010   1.463   0.000  0.00  0.00     0.033 H 
ATOM     20  H10 <0> d          -0.540   1.447  -0.875  0.00  0.00     0.033 H 
ENDBRANCH   5  17
TORSDOF 3
