REMARK  5 active torsions:
REMARK  status: ('A' for Active; 'I' for Inactive)
REMARK    1  A    between atoms: C1_1  and  C2_2 
REMARK    2  A    between atoms: C2_2  and  O1_3 
REMARK    3  A    between atoms: O1_3  and  C3_4 
REMARK    4  A    between atoms: C5_6  and  C9_11 
REMARK    5  A    between atoms: C8_9  and  N1_10 
ROOT
ATOM      1  C3  <0> d          -0.148   1.182   2.381  0.00  0.00     0.095 A 
ATOM      2  C4  <0> d           0.993   0.398   2.422  0.00  0.00    -0.043 A 
ATOM      3  C5  <0> d           1.534   0.028   3.640  0.00  0.00    -0.059 A 
ATOM      4  C6  <0> d           0.939   0.438   4.818  0.00  0.00    -0.075 A 
ATOM      5  C7  <0> d          -0.201   1.220   4.785  0.00  0.00    -0.054 A 
ATOM      6  C8  <0> d          -0.745   1.600   3.568  0.00  0.00     0.059 A 
ATOM      7  H6  <0> d           1.460   0.076   1.503  0.00  0.00     0.088 H 
ATOM      8  H7  <0> d           1.365   0.146   5.767  0.00  0.00     0.084 H 
ATOM      9  H8  <0> d          -0.664   1.539   5.708  0.00  0.00     0.087 H 
ENDROOT
BRANCH   1  10
ATOM     10  O1  <0> d          -0.682   1.547   1.184  0.00  0.00    -0.349 OA
BRANCH  10  11
ATOM     11  C2  <0> d          -0.013   1.086   0.008  0.00  0.00     0.023 C 
ATOM     12  H4  <0> d           0.002  -0.004   0.002  0.00  0.00     0.074 H 
ATOM     13  H5  <0> d           1.010   1.463   0.000  0.00  0.00     0.074 H 
BRANCH  11  14
ATOM     14  C1  <0> d          -0.753   1.593  -1.232  0.00  0.00    -0.056 C 
ATOM     15  H1  <0> d          -0.767   2.683  -1.226  0.00  0.00     0.030 H 
ATOM     16  H2  <0> d          -0.242   1.241  -2.128  0.00  0.00     0.030 H 
ATOM     17  H3  <0> d          -1.775   1.215  -1.224  0.00  0.00     0.030 H 
ENDBRANCH  11  14
ENDBRANCH  10  11
ENDBRANCH   1  10
BRANCH   6  18
ATOM     18  N1  <0> d          -1.895   2.397   3.532  0.00  0.00    -0.397 N 
ATOM     19  H9  <0> d          -2.278   2.659   2.679  0.00  0.00     0.156 HD
ATOM     20  H10 <0> d          -2.310   2.688   4.359  0.00  0.00     0.156 HD
ENDBRANCH   6  18
BRANCH   3  21
ATOM     21  C9  <0> d           2.776  -0.825   3.682  0.00  0.00    -0.051 C 
ATOM     22  H11 <0> d           3.657  -0.183   3.692  0.00  0.00     0.033 H 
ATOM     23  H12 <0> d           2.764  -1.439   4.582  0.00  0.00     0.033 H 
ATOM     24  H13 <0> d           2.805  -1.469   2.803  0.00  0.00     0.033 H 
ENDBRANCH   3  21
TORSDOF 5
