REMARK  2 active torsions:
REMARK  status: ('A' for Active; 'I' for Inactive)
REMARK    1  A    between atoms: C1_1  and  O1_2 
REMARK    2  A    between atoms: O1_2  and  C2_3 
ROOT
ATOM      1  C2  <0> d          -0.811   1.621   1.217  0.00  0.00     0.105 C 
ATOM      2  H1  <0> d          -0.133   1.885   2.030  0.00  0.00     0.117 H 
ATOM      3  C3  <0> d          -0.013   1.086   0.008  0.00  0.00    -0.017 C 
ATOM      4  C4  <0> d          -0.835   1.635  -1.181  0.00  0.00     0.013 C 
ATOM      5  C5  <0> d          -1.541   2.847  -0.616  0.00  0.00     0.219 C 
ATOM      6  O2  <0> d          -2.061   3.720  -1.279  0.00  0.00    -0.274 OA
ATOM      7  N1  <0> d          -1.508   2.817   0.727  0.00  0.00    -0.335 N 
ATOM      8  H5  <0> d           0.002  -0.004   0.002  0.00  0.00     0.040 H 
ATOM      9  H6  <0> d           1.000   1.488   0.001  0.00  0.00     0.040 H 
ATOM     10  H7  <0> d          -0.175   1.924  -2.000  0.00  0.00     0.047 H 
ATOM     11  H8  <0> d          -1.558   0.893  -1.520  0.00  0.00     0.047 H 
ATOM     12  H9  <0> d          -1.895   3.498   1.300  0.00  0.00     0.165 HD
ENDROOT
BRANCH   1  13
ATOM     13  O1  <0> d          -1.756   0.644   1.658  0.00  0.00    -0.372 OA
BRANCH  13  14
ATOM     14  C1  <0> d          -2.379   0.959   2.905  0.00  0.00     0.006 C 
ATOM     15  H2  <0> d          -1.618   1.044   3.680  0.00  0.00     0.066 H 
ATOM     16  H3  <0> d          -2.913   1.905   2.815  0.00  0.00     0.066 H 
ATOM     17  H4  <0> d          -3.082   0.169   3.169  0.00  0.00     0.066 H 
ENDBRANCH  13  14
ENDBRANCH   1  13
TORSDOF 2
