REMARK  1 active torsions:
REMARK  status: ('A' for Active; 'I' for Inactive)
REMARK    1  A    between atoms: C3_4  and  N2_6 
ROOT
ATOM      1  C1  <0> d          -0.013   1.076   0.008  0.00  0.00     0.107 A 
ATOM      2  N1  <0> d           1.039   1.837   0.002  0.00  0.00    -0.221 NA
ATOM      3  C2  <0> d           0.635   3.139   0.013  0.00  0.00     0.189 A 
ATOM      4  C3  <0> d          -0.750   3.127   0.026  0.00  0.00     0.182 A 
ATOM      5  O1  <0> d          -1.121   1.833   0.017  0.00  0.00    -0.284 OA
ATOM      6  C4  <0> d           1.479   4.295   0.012  0.00  0.00     0.124 C 
ATOM      7  N3  <0> d           2.149   5.213   0.011  0.00  0.00    -0.190 NA
ATOM      8  H1  <0> d           0.002  -0.004   0.002  0.00  0.00     0.155 H 
ENDROOT
BRANCH   4   9
ATOM      9  N2  <0> d          -1.584   4.225   0.041  0.00  0.00    -0.377 N 
ATOM     10  H2  <0> d          -1.208   5.119   0.042  0.00  0.00     0.158 HD
ATOM     11  H3  <0> d          -2.546   4.103   0.049  0.00  0.00     0.158 HD
ENDBRANCH   4   9
TORSDOF 1
