REMARK  0 active torsions:
REMARK  status: ('A' for Active; 'I' for Inactive)
ROOT
ATOM      1  C1  <0> d          -1.229   1.743   0.017  0.00  0.00    -0.057 A 
ATOM      2  C2  <0> d          -0.013   1.076   0.008  0.00  0.00     0.002 A 
ATOM      3  N1  <0> d           1.126   1.741   0.001  0.00  0.00    -0.272 NA
ATOM      4  C3  <0> d           1.166   3.065   0.007  0.00  0.00     0.011 A 
ATOM      5  C4  <0> d           0.003   3.784   0.021  0.00  0.00     0.001 A 
ATOM      6  C5  <0> d          -1.221   3.114   0.030  0.00  0.00    -0.014 A 
ATOM      7  C6  <0> d          -2.267   4.220   0.046  0.00  0.00     0.082 C 
ATOM      8  H1  <0> d          -3.274   3.927  -0.250  0.00  0.00     0.097 H 
ATOM      9  C7  <0> d          -2.138   4.875   1.427  0.00  0.00    -0.072 C 
ATOM     10  C8  <0> d          -0.977   5.512   1.418  0.00  0.00    -0.072 C 
ATOM     11  C9  <0> d          -0.371   5.262   0.032  0.00  0.00     0.083 C 
ATOM     12  H2  <0> d           0.413   5.953  -0.277  0.00  0.00     0.097 H 
ATOM     13  O1  <0> d          -1.597   5.237  -0.783  0.00  0.00    -0.363 OA
ATOM     14  H3  <0> d          -2.160   1.196   0.019  0.00  0.00     0.086 H 
ATOM     15  H4  <0> d           0.002  -0.004   0.002  0.00  0.00     0.114 H 
ATOM     16  H5  <0> d           2.118   3.576   0.000  0.00  0.00     0.115 H 
ATOM     17  H6  <0> d          -2.848   4.826   2.239  0.00  0.00     0.081 H 
ATOM     18  H7  <0> d          -0.546   6.090   2.222  0.00  0.00     0.081 H 
ENDROOT
TORSDOF 0
