REMARK  1 active torsions:
REMARK  status: ('A' for Active; 'I' for Inactive)
REMARK    1  A    between atoms: C3_8  and  N6_12 
ROOT
ATOM      1  C1  <0> d          -0.018   1.454   0.010  0.00  0.00     0.184 A 
ATOM      2  C2  <0> d           1.236   2.137   0.002  0.00  0.00     0.224 A 
ATOM      3  N1  <0> d           0.932   3.422   0.011  0.00  0.00    -0.134 NA
ATOM      4  H1  <0> d          -0.815   4.397   0.032  0.00  0.00     0.213 HD
ATOM      5  N2  <0> d          -0.350   3.546   0.024  0.00  0.00    -0.194 N 
ATOM      6  N3  <0> d          -0.939   2.399   0.019  0.00  0.00    -0.149 NA
ATOM      7  N4  <0> d           2.361   1.406  -0.013  0.00  0.00    -0.039 NA
ATOM      8  C3  <0> d           2.316   0.091  -0.019  0.00  0.00     0.724 A 
ATOM      9  N5  <0> d           1.181  -0.606  -0.012  0.00  0.00    -0.033 NA
ATOM     10  C4  <0> d           0.002  -0.004   0.002  0.00  0.00     0.253 A 
ATOM     11  O1  <0> d          -1.147  -0.718   0.009  0.00  0.00    -0.167 OA
ENDROOT
BRANCH   8  12
ATOM     12  N6  <0> d           3.511  -0.605  -0.035  0.00  0.00    -0.231 N 
ATOM     13  H2  <0> d           4.353  -0.123  -0.041  0.00  0.00     0.174 HD
ATOM     14  H3  <0> d           3.508  -1.575  -0.040  0.00  0.00     0.174 HD
ENDBRANCH   8  12
TORSDOF 1
