REMARK  1 active torsions:
REMARK  status: ('A' for Active; 'I' for Inactive)
REMARK    1  A    between atoms: C3_3  and  O1_9 
ROOT
ATOM      1  C1  <0> d          -1.259   3.400   0.032  0.00  0.00    -0.020 A 
ATOM      2  C2  <0> d          -0.061   4.122   0.025  0.00  0.00     0.080 A 
ATOM      3  C3  <0> d           1.162   3.437   0.010  0.00  0.00     0.089 A 
ATOM      4  C4  <0> d           1.174   2.051   0.002  0.00  0.00    -0.009 A 
ATOM      5  C5  <0> d          -0.016   1.347   0.009  0.00  0.00     0.157 A 
ATOM      6  C6  <0> d          -1.231   2.022   0.019  0.00  0.00     0.156 A 
ATOM      7  F1  <0> d          -2.388   1.325   0.020  0.00  0.00    -0.203 F 
ATOM      8  F2  <0> d           0.002  -0.004   0.002  0.00  0.00    -0.203 F 
ATOM      9  C7  <0> d          -0.084   5.554   0.034  0.00  0.00     0.102 C 
ATOM     10  N1  <0> d          -0.102   6.689   0.041  0.00  0.00    -0.191 NA
ATOM     11  H1  <0> d          -2.204   3.922   0.044  0.00  0.00     0.090 H 
ATOM     12  H2  <0> d           2.115   1.521  -0.010  0.00  0.00     0.092 H 
ENDROOT
BRANCH   3  13
ATOM     13  O1  <0> d           2.330   4.128   0.003  0.00  0.00    -0.359 OA
ATOM     14  H3  <0> d           2.660   4.334  -0.882  0.00  0.00     0.217 HD
ENDBRANCH   3  13
TORSDOF 1
