REMARK  2 active torsions:
REMARK  status: ('A' for Active; 'I' for Inactive)
REMARK    1  A    between atoms: C1_1  and  C2_2 
REMARK    2  A    between atoms: C2_2  and  C3_3 
ROOT
ATOM      1  C3  <0> d          -1.433  -0.534   0.013  0.00  0.00    -0.038 C 
ATOM      2  H1  <0> d          -2.003  -0.101  -0.809  0.00  0.00     0.045 H 
ATOM      3  C4  <0> d          -1.439  -2.077  -0.082  0.00  0.00    -0.056 C 
ATOM      4  C5  <0> d          -2.630  -2.436   0.837  0.00  0.00    -0.049 C 
ATOM      5  C6  <0> d          -2.750  -1.265   1.785  0.00  0.00    -0.106 C 
ATOM      6  C7  <0> d          -2.098  -0.225   1.334  0.00  0.00    -0.102 C 
ATOM      7  H7  <0> d          -1.621  -2.406  -1.105  0.00  0.00     0.034 H 
ATOM      8  H8  <0> d          -0.508  -2.496   0.302  0.00  0.00     0.034 H 
ATOM      9  H9  <0> d          -3.542  -2.545   0.251  0.00  0.00     0.038 H 
ATOM     10  H10 <0> d          -2.421  -3.352   1.390  0.00  0.00     0.038 H 
ATOM     11  H11 <0> d          -3.303  -1.284   2.712  0.00  0.00     0.076 H 
ATOM     12  H12 <0> d          -2.041   0.728   1.839  0.00  0.00     0.076 H 
ENDROOT
BRANCH   1  13
ATOM     13  C2  <0> d           0.002  -0.004   0.002  0.00  0.00    -0.062 C 
ATOM     14  H5  <0> d           0.512  -0.356  -0.895  0.00  0.00     0.033 H 
ATOM     15  H6  <0> d           0.529  -0.365   0.885  0.00  0.00     0.033 H 
BRANCH  13  16
ATOM     16  C1  <0> d          -0.019   1.526   0.010  0.00  0.00    -0.076 C 
ATOM     17  H2  <0> d           1.004   1.903   0.003  0.00  0.00     0.027 H 
ATOM     18  H3  <0> d          -0.546   1.887  -0.873  0.00  0.00     0.027 H 
ATOM     19  H4  <0> d          -0.529   1.877   0.907  0.00  0.00     0.027 H 
ENDBRANCH  13  16
ENDBRANCH   1  13
TORSDOF 2
