REMARK  0 active torsions:
REMARK  status: ('A' for Active; 'I' for Inactive)
ROOT
ATOM      1  C1  <0> d          -0.776   1.605  -1.214  0.00  0.00    -0.064 C 
ATOM      2  C2  <0> d          -1.820   2.662  -0.961  0.00  0.00    -0.063 C 
ATOM      3  C3  <0> d          -2.800   2.397   0.187  0.00  0.00    -0.045 C 
ATOM      4  C4  <0> d          -2.251   1.239   0.978  0.00  0.00     0.024 C 
ATOM      5  H1  <0> d          -2.339   0.305   0.422  0.00  0.00     0.073 H 
ATOM      6  C5  <0> d          -0.742   1.584   1.231  0.00  0.00     0.043 C 
ATOM      7  H2  <0> d          -0.596   2.654   1.379  0.00  0.00     0.057 H 
ATOM      8  C6  <0> d          -0.013   1.086   0.008  0.00  0.00    -0.052 C 
ATOM      9  C7  <0> d          -0.933   0.874   2.508  0.00  0.00     0.224 C 
ATOM     10  O1  <0> d          -0.192   0.376   3.329  0.00  0.00    -0.273 OA
ATOM     11  N1  <0> d          -2.299   1.007   2.385  0.00  0.00    -0.355 N 
ATOM     12  H3  <0> d          -0.050   2.010  -1.919  0.00  0.00     0.033 H 
ATOM     13  H4  <0> d          -1.266   0.756  -1.691  0.00  0.00     0.033 H 
ATOM     14  H5  <0> d          -1.306   3.601  -0.756  0.00  0.00     0.033 H 
ATOM     15  H6  <0> d          -2.400   2.790  -1.875  0.00  0.00     0.033 H 
ATOM     16  H7  <0> d          -2.874   3.279   0.823  0.00  0.00     0.036 H 
ATOM     17  H8  <0> d          -3.781   2.143  -0.213  0.00  0.00     0.036 H 
ATOM     18  H9  <0> d           0.002  -0.004   0.002  0.00  0.00     0.034 H 
ATOM     19  H10 <0> d           1.007   1.471   0.000  0.00  0.00     0.034 H 
ATOM     20  H11 <0> d          -3.029   0.961   3.023  0.00  0.00     0.162 HD
ENDROOT
TORSDOF 0
