REMARK  4 active torsions:
REMARK  status: ('A' for Active; 'I' for Inactive)
REMARK    1  A    between atoms: C1_1  and  C2_2 
REMARK    2  A    between atoms: C2_2  and  O1_3 
REMARK    3  A    between atoms: O1_3  and  C3_4 
REMARK       I    between atoms: C3_4  and  N1_6 
REMARK    4  A    between atoms: N1_6  and  S1_7 
ROOT
ATOM      1  C2  <0> d          -2.380   1.077   0.019  0.00  0.00     0.027 C 
ATOM      2  H4  <0> d          -2.401   0.453  -0.874  0.00  0.00     0.074 H 
ATOM      3  H5  <0> d          -2.392   0.443   0.906  0.00  0.00     0.074 H 
ENDROOT
BRANCH   1   4
ATOM      4  C1  <0> d          -3.606   1.992   0.030  0.00  0.00    -0.056 C 
ATOM      5  H1  <0> d          -4.512   1.386   0.031  0.00  0.00     0.030 H 
ATOM      6  H2  <0> d          -3.585   2.616   0.923  0.00  0.00     0.030 H 
ATOM      7  H3  <0> d          -3.594   2.626  -0.857  0.00  0.00     0.030 H 
ENDBRANCH   1   4
BRANCH   1   8
ATOM      8  O1  <0> d          -1.192   1.871   0.018  0.00  0.00    -0.302 OA
BRANCH   8   9
ATOM      9  C3  <0> d          -0.014   1.212   0.009  0.00  0.00     0.395 C 
ATOM     10  O2  <0> d           0.002  -0.004   0.002  0.00  0.00    -0.235 OA
ATOM     11  N1  <0> d           1.138   1.899   0.001  0.00  0.00    -0.123 NA
BRANCH  11  12
ATOM     12  S1  <0> d           2.500   1.137  -0.016  0.00  0.00     0.180 SA
ATOM     13  O3  <0> d           3.454   2.307  -0.018  0.00  0.00    -0.124 OA
ENDBRANCH  11  12
ENDBRANCH   8   9
ENDBRANCH   1   8
TORSDOF 4
