REMARK  1 active torsions:
REMARK  status: ('A' for Active; 'I' for Inactive)
REMARK    1  A    between atoms: C2_2  and  C4_8 
ROOT
ATOM      1  C1  <0> d          -0.018   1.437   0.010  0.00  0.00     0.059 C 
ATOM      2  C2  <0> d           1.491   1.780  -0.003  0.00  0.00     0.119 C 
ATOM      3  H1  <0> d           1.697   2.649   0.622  0.00  0.00     0.093 H 
ATOM      4  N1  <0> d           2.093   0.562   0.576  0.00  0.00    -0.320 N 
ATOM      5  C3  <0> d           1.158  -0.407   0.555  0.00  0.00     0.361 C 
ATOM      6  O1  <0> d           1.341  -1.526   0.992  0.00  0.00    -0.238 OA
ATOM      7  O2  <0> d           0.002  -0.004   0.002  0.00  0.00    -0.301 OA
ATOM      8  H2  <0> d          -0.495   1.815   0.914  0.00  0.00     0.079 H 
ATOM      9  H3  <0> d          -0.512   1.824  -0.881  0.00  0.00     0.079 H 
ATOM     10  H4  <0> d           2.999   0.475   0.911  0.00  0.00     0.165 HD
ENDROOT
BRANCH   2  11
ATOM     11  C4  <0> d           1.978   2.007  -1.411  0.00  0.00     0.199 C 
ATOM     12  O3  <0> d           1.942   3.125  -1.895  0.00  0.00    -0.646 OA
ATOM     13  O4  <0> d           2.408   1.073  -2.066  0.00  0.00    -0.646 OA
ENDBRANCH   2  11
TORSDOF 1
