REMARK  4 active torsions:
REMARK  status: ('A' for Active; 'I' for Inactive)
REMARK    1  A    between atoms: C1_1  and  C2_2 
REMARK    2  A    between atoms: C2_2  and  C9_13 
REMARK    3  A    between atoms: C3_3  and  O2_12 
REMARK    4  A    between atoms: C8_9  and  O1_11 
ROOT
ATOM      1  C2  <0> d          -0.729   1.579   1.267  0.00  0.00     0.008 C 
ATOM      2  C3  <0> d          -0.774   3.097   1.254  0.00  0.00     0.045 C 
ATOM      3  H1  <0> d          -1.203   3.441   2.195  0.00  0.00     0.084 H 
ATOM      4  C4  <0> d           0.588   3.745   1.075  0.00  0.00    -0.037 C 
ATOM      5  C5  <0> d           1.480   3.477   2.290  0.00  0.00    -0.048 C 
ATOM      6  C6  <0> d           2.169   2.143   2.098  0.00  0.00    -0.104 C 
ATOM      7  C7  <0> d           1.498   1.039   2.196  0.00  0.00    -0.079 C 
ATOM      8  C8  <0> d           0.016   1.069   2.503  0.00  0.00     0.060 C 
ATOM      9  H2  <0> d          -0.330   0.066   2.750  0.00  0.00     0.090 H 
ATOM     10  H6  <0> d           0.461   4.821   0.955  0.00  0.00     0.037 H 
ATOM     11  H7  <0> d           1.065   3.338   0.183  0.00  0.00     0.037 H 
ATOM     12  H8  <0> d           0.869   3.447   3.192  0.00  0.00     0.038 H 
ATOM     13  H9  <0> d           2.227   4.265   2.380  0.00  0.00     0.038 H 
ATOM     14  H10 <0> d           3.226   2.111   1.879  0.00  0.00     0.076 H 
ATOM     15  H11 <0> d           1.998   0.092   2.057  0.00  0.00     0.080 H 
ENDROOT
BRANCH   1  16
ATOM     16  C1  <0> d          -0.013   1.086   0.008  0.00  0.00    -0.064 C 
ATOM     17  H3  <0> d           0.002  -0.004   0.002  0.00  0.00     0.028 H 
ATOM     18  H4  <0> d           1.010   1.463   0.000  0.00  0.00     0.028 H 
ATOM     19  H5  <0> d          -0.540   1.447  -0.875  0.00  0.00     0.028 H 
ENDBRANCH   1  16
BRANCH   1  20
ATOM     20  C9  <0> d          -2.158   1.034   1.279  0.00  0.00    -0.064 C 
ATOM     21  H14 <0> d          -2.132  -0.056   1.277  0.00  0.00     0.028 H 
ATOM     22  H15 <0> d          -2.672   1.383   2.175  0.00  0.00     0.028 H 
ATOM     23  H16 <0> d          -2.689   1.386   0.395  0.00  0.00     0.028 H 
ENDBRANCH   1  20
BRANCH   8  24
ATOM     24  O1  <0> d          -0.228   1.945   3.605  0.00  0.00    -0.391 OA
ATOM     25  H12 <0> d           0.215   1.681   4.423  0.00  0.00     0.210 HD
ENDBRANCH   8  24
BRANCH   2  26
ATOM     26  O2  <0> d          -1.625   3.520   0.187  0.00  0.00    -0.395 OA
ATOM     27  H13 <0> d          -1.709   4.480   0.108  0.00  0.00     0.210 HD
ENDBRANCH   2  26
TORSDOF 4
