REMARK  6 active torsions:
REMARK  status: ('A' for Active; 'I' for Inactive)
REMARK    1  A    between atoms: C1_1  and  C2_2 
REMARK    2  A    between atoms: C2_2  and  C3_3 
REMARK    3  A    between atoms: C4_4  and  C5_5 
REMARK    4  A    between atoms: C5_5  and  C6_6 
REMARK    5  A    between atoms: C6_6  and  C7_7 
REMARK    6  A    between atoms: C7_7  and  O1_8 
ROOT
ATOM      1  C3  <0> d          -0.658   1.577   1.289  0.00  0.00    -0.107 C 
ATOM      2  C4  <0> d          -1.196   0.709   2.110  0.00  0.00    -0.106 C 
ATOM      3  H6  <0> d          -0.738   2.634   1.493  0.00  0.00     0.076 H 
ATOM      4  H7  <0> d          -1.821   1.050   2.923  0.00  0.00     0.076 H 
ENDROOT
BRANCH   2   5
ATOM      5  C5  <0> d          -0.943  -0.764   1.921  0.00  0.00    -0.048 C 
ATOM      6  H8  <0> d          -1.874  -1.260   1.647  0.00  0.00     0.038 H 
ATOM      7  H9  <0> d          -0.208  -0.908   1.129  0.00  0.00     0.038 H 
BRANCH   5   8
ATOM      8  C6  <0> d          -0.411  -1.362   3.225  0.00  0.00    -0.043 C 
ATOM      9  H10 <0> d           0.520  -0.866   3.499  0.00  0.00     0.036 H 
ATOM     10  H11 <0> d          -1.147  -1.218   4.017  0.00  0.00     0.036 H 
BRANCH   8  11
ATOM     11  C7  <0> d          -0.155  -2.858   3.033  0.00  0.00     0.017 C 
ATOM     12  H12 <0> d          -1.086  -3.354   2.759  0.00  0.00     0.073 H 
ATOM     13  H13 <0> d           0.580  -3.002   2.241  0.00  0.00     0.073 H 
BRANCH  11  14
ATOM     14  O1  <0> d           0.342  -3.416   4.251  0.00  0.00    -0.401 OA
ATOM     15  H14 <0> d           0.527  -4.364   4.203  0.00  0.00     0.209 HD
ENDBRANCH  11  14
ENDBRANCH   8  11
ENDBRANCH   5   8
ENDBRANCH   2   5
BRANCH   1  16
ATOM     16  C2  <0> d           0.070   1.099   0.059  0.00  0.00    -0.053 C 
ATOM     17  H4  <0> d          -0.068   0.024  -0.050  0.00  0.00     0.038 H 
ATOM     18  H5  <0> d           1.133   1.320   0.158  0.00  0.00     0.038 H 
BRANCH  16  19
ATOM     19  C1  <0> d          -0.486   1.814  -1.173  0.00  0.00    -0.073 C 
ATOM     20  H1  <0> d          -1.549   1.593  -1.272  0.00  0.00     0.027 H 
ATOM     21  H2  <0> d          -0.348   2.889  -1.064  0.00  0.00     0.027 H 
ATOM     22  H3  <0> d           0.041   1.468  -2.063  0.00  0.00     0.027 H 
ENDBRANCH  16  19
ENDBRANCH   1  16
TORSDOF 6
