REMARK  1 active torsions:
REMARK  status: ('A' for Active; 'I' for Inactive)
REMARK    1  A    between atoms: C6_6  and  O1_7 
ROOT
ATOM      1  C1  <0> d          -0.017   1.383   0.010  0.00  0.00    -0.048 A 
ATOM      2  C2  <0> d           1.165   2.095   0.002  0.00  0.00    -0.048 A 
ATOM      3  C3  <0> d           2.387   1.428  -0.014  0.00  0.00     0.075 A 
ATOM      4  C4  <0> d           2.395   0.039  -0.030  0.00  0.00    -0.020 A 
ATOM      5  C5  <0> d           1.218  -0.674  -0.017  0.00  0.00    -0.042 A 
ATOM      6  C6  <0> d           0.002  -0.004   0.002  0.00  0.00     0.066 A 
ATOM      7  C7  <0> d           3.848  -0.397  -0.070  0.00  0.00    -0.018 C 
ATOM      8  C8  <0> d           4.564   0.914  -0.472  0.00  0.00     0.030 C 
ATOM      9  O2  <0> d           3.654   1.928  -0.012  0.00  0.00    -0.350 OA
ATOM     10  H1  <0> d          -0.961   1.907   0.026  0.00  0.00     0.087 H 
ATOM     11  H2  <0> d           1.142   3.174   0.009  0.00  0.00     0.087 H 
ATOM     12  H3  <0> d           1.239  -1.754  -0.023  0.00  0.00     0.088 H 
ATOM     13  H5  <0> d           4.180  -0.737   0.911  0.00  0.00     0.043 H 
ATOM     14  H6  <0> d           4.001  -1.171  -0.822  0.00  0.00     0.043 H 
ATOM     15  H7  <0> d           5.525   1.000   0.034  0.00  0.00     0.075 H 
ATOM     16  H8  <0> d           4.689   0.970  -1.554  0.00  0.00     0.075 H 
ENDROOT
BRANCH   6  17
ATOM     17  O1  <0> d          -1.164  -0.704   0.014  0.00  0.00    -0.361 OA
ATOM     18  H4  <0> d          -1.513  -0.901  -0.866  0.00  0.00     0.217 HD
ENDBRANCH   6  17
TORSDOF 1
