REMARK  1 active torsions:
REMARK  status: ('A' for Active; 'I' for Inactive)
REMARK    1  A    between atoms: C2_3  and  N5_10 
ROOT
ATOM      1  C1  <0> d           1.109   3.400   0.009  0.00  0.00     0.091 A 
ATOM      2  N1  <0> d           1.107   2.075   0.003  0.00  0.00    -0.222 NA
ATOM      3  C2  <0> d          -0.017   1.369   0.010  0.00  0.00     0.158 A 
ATOM      4  C3  <0> d          -1.276   2.114   0.019  0.00  0.00     0.181 A 
ATOM      5  C4  <0> d          -1.186   3.597   0.031  0.00  0.00     0.215 A 
ATOM      6  N2  <0> d           0.035   4.148   0.023  0.00  0.00    -0.218 NA
ATOM      7  N3  <0> d          -2.443   3.958   0.045  0.00  0.00    -0.082 NA
ATOM      8  O1  <0> d          -3.143   2.964   0.047  0.00  0.00    -0.104 OA
ATOM      9  N4  <0> d          -2.560   1.897   0.036  0.00  0.00    -0.097 NA
ATOM     10  H1  <0> d           2.067   3.899   0.003  0.00  0.00     0.146 H 
ENDROOT
BRANCH   3  11
ATOM     11  N5  <0> d           0.002  -0.004   0.002  0.00  0.00    -0.382 N 
ATOM     12  H2  <0> d           0.849  -0.478  -0.009  0.00  0.00     0.157 HD
ATOM     13  H3  <0> d          -0.831  -0.500   0.007  0.00  0.00     0.157 HD
ENDBRANCH   3  11
TORSDOF 1
