REMARK  2 active torsions:
REMARK  status: ('A' for Active; 'I' for Inactive)
REMARK    1  A    between atoms: C5_6  and  O1_7 
REMARK    2  A    between atoms: O1_7  and  C6_8 
ROOT
ATOM      1  C1  <0> d          -0.017   1.388   0.010  0.00  0.00    -0.034 A 
ATOM      2  C2  <0> d           1.180   2.076   0.002  0.00  0.00     0.004 A 
ATOM      3  N1  <0> d           2.330   1.430  -0.013  0.00  0.00    -0.273 NA
ATOM      4  C3  <0> d           2.389   0.111  -0.020  0.00  0.00     0.004 A 
ATOM      5  C4  <0> d           1.237  -0.648  -0.013  0.00  0.00    -0.034 A 
ATOM      6  C5  <0> d           0.002  -0.004   0.002  0.00  0.00     0.077 A 
ATOM      7  H1  <0> d          -0.955   1.923   0.026  0.00  0.00     0.089 H 
ATOM      8  H2  <0> d           1.174   3.156   0.007  0.00  0.00     0.114 H 
ATOM      9  H3  <0> d           3.351  -0.379  -0.032  0.00  0.00     0.114 H 
ATOM     10  H4  <0> d           1.292  -1.726  -0.020  0.00  0.00     0.089 H 
ENDROOT
BRANCH   6  11
ATOM     11  O1  <0> d          -1.154  -0.716   0.010  0.00  0.00    -0.290 OA
BRANCH  11  12
ATOM     12  C6  <0> d          -1.038  -2.140   0.001  0.00  0.00     0.310 C 
ATOM     13  F1  <0> d          -0.355  -2.546  -1.150  0.00  0.00    -0.184 F 
ATOM     14  F2  <0> d          -0.332  -2.558   1.134  0.00  0.00    -0.184 F 
ATOM     15  H5  <0> d          -2.034  -2.585   0.008  0.00  0.00     0.195 H 
ENDBRANCH  11  12
ENDBRANCH   6  11
TORSDOF 2
