REMARK  1 active torsions:
REMARK  status: ('A' for Active; 'I' for Inactive)
REMARK    1  A    between atoms: C1_1  and  C2_2 
ROOT
ATOM      1  C2  <0> d           0.002  -0.004   0.002  0.00  0.00     0.057 A 
ATOM      2  C3  <0> d           0.006  -0.684  -1.169  0.00  0.00    -0.004 A 
ATOM      3  C4  <0> d           0.025  -2.093  -1.145  0.00  0.00     0.220 A 
ATOM      4  N1  <0> d           0.039  -2.738   0.005  0.00  0.00    -0.032 NA
ATOM      5  C5  <0> d           0.035  -2.069   1.164  0.00  0.00     0.773 A 
ATOM      6  N2  <0> d           0.023  -0.701   1.172  0.00  0.00    -0.043 N 
ATOM      7  N3  <0> d           0.030  -0.335   2.524  0.00  0.00    -0.025 NA
ATOM      8  N4  <0> d           0.051  -1.428   3.209  0.00  0.00    -0.007 NA
ATOM      9  N5  <0> d           0.046  -2.453   2.433  0.00  0.00     0.067 NA
ATOM     10  O1  <0> d           0.029  -2.787  -2.308  0.00  0.00    -0.170 OA
ATOM     11  H4  <0> d          -0.006  -0.154  -2.109  0.00  0.00     0.093 H 
ENDROOT
BRANCH   1  12
ATOM     12  C1  <0> d          -0.018   1.503   0.010  0.00  0.00    -0.035 C 
ATOM     13  H1  <0> d           1.004   1.880   0.003  0.00  0.00     0.035 H 
ATOM     14  H2  <0> d          -0.545   1.864  -0.873  0.00  0.00     0.035 H 
ATOM     15  H3  <0> d          -0.529   1.854   0.907  0.00  0.00     0.035 H 
ENDBRANCH   1  12
TORSDOF 1
