REMARK  3 active torsions:
REMARK  status: ('A' for Active; 'I' for Inactive)
REMARK    1  A    between atoms: C1_1  and  C2_2 
REMARK    2  A    between atoms: C2_2  and  C3_4 
REMARK    3  A    between atoms: C2_2  and  O1_9 
ROOT
ATOM      1  C3  <0> d          -0.518   3.725   0.025  0.00  0.00     0.011 A 
ATOM      2  C4  <0> d           0.770   3.301   0.012  0.00  0.00    -0.067 A 
ATOM      3  C5  <0> d           1.029   1.944   0.003  0.00  0.00    -0.076 A 
ATOM      4  C6  <0> d          -0.013   1.076   0.008  0.00  0.00    -0.044 A 
ATOM      5  S1  <0> d          -1.415   2.181   0.019  0.00  0.00    -0.104 SA
ATOM      6  H5  <0> d           1.581   4.014   0.008  0.00  0.00     0.085 H 
ATOM      7  H6  <0> d           2.045   1.580  -0.009  0.00  0.00     0.084 H 
ATOM      8  H7  <0> d           0.002  -0.004   0.002  0.00  0.00     0.095 H 
ENDROOT
BRANCH   1   9
ATOM      9  C2  <0> d          -1.054   5.133   0.037  0.00  0.00     0.063 C 
ATOM     10  H1  <0> d          -0.277   5.815   0.385  0.00  0.00     0.090 H 
BRANCH   9  11
ATOM     11  C1  <0> d          -1.482   5.528  -1.377  0.00  0.00    -0.048 C 
ATOM     12  H2  <0> d          -2.259   4.847  -1.725  0.00  0.00     0.031 H 
ATOM     13  H3  <0> d          -1.869   6.547  -1.369  0.00  0.00     0.031 H 
ATOM     14  H4  <0> d          -0.623   5.471  -2.046  0.00  0.00     0.031 H 
ENDBRANCH   9  11
BRANCH   9  15
ATOM     15  O1  <0> d          -2.180   5.207   0.914  0.00  0.00    -0.391 OA
ATOM     16  H8  <0> d          -2.911   4.626   0.665  0.00  0.00     0.210 HD
ENDBRANCH   9  15
ENDBRANCH   1   9
TORSDOF 3
