REMARK  1 active torsions:
REMARK  status: ('A' for Active; 'I' for Inactive)
REMARK    1  A    between atoms: C1_1  and  N1_2 
ROOT
ATOM      1  N1  <0> d           0.002  -0.004   0.002  0.00  0.00    -0.274 N 
ATOM      2  C2  <0> d           1.311  -0.412  -0.013  0.00  0.00     0.067 A 
ATOM      3  C3  <0> d           1.932  -1.659  -0.026  0.00  0.00    -0.054 A 
ATOM      4  C4  <0> d           3.296  -1.740  -0.040  0.00  0.00    -0.078 A 
ATOM      5  C5  <0> d           4.076  -0.590  -0.041  0.00  0.00    -0.045 A 
ATOM      6  C6  <0> d           3.495   0.646  -0.028  0.00  0.00     0.130 A 
ATOM      7  C7  <0> d           2.096   0.756  -0.014  0.00  0.00     0.050 A 
ATOM      8  C8  <0> d           1.202   1.853   0.001  0.00  0.00     0.037 A 
ATOM      9  N2  <0> d          -0.017   1.396   0.010  0.00  0.00    -0.184 NA
ATOM     10  F1  <0> d           4.263   1.758  -0.029  0.00  0.00    -0.205 F 
ATOM     11  H4  <0> d           1.337  -2.560  -0.025  0.00  0.00     0.087 H 
ATOM     12  H5  <0> d           3.773  -2.709  -0.050  0.00  0.00     0.083 H 
ATOM     13  H6  <0> d           5.153  -0.675  -0.052  0.00  0.00     0.088 H 
ATOM     14  H7  <0> d           1.484   2.895   0.004  0.00  0.00     0.118 H 
ENDROOT
BRANCH   1  15
ATOM     15  C1  <0> d          -1.172  -0.880   0.008  0.00  0.00     0.003 C 
ATOM     16  H1  <0> d          -0.846  -1.931  -0.001  0.00  0.00     0.059 H 
ATOM     17  H2  <0> d          -1.784  -0.679  -0.884  0.00  0.00     0.059 H 
ATOM     18  H3  <0> d          -1.768  -0.689   0.912  0.00  0.00     0.059 H 
ENDBRANCH   1  15
TORSDOF 1
