REMARK  4 active torsions:
REMARK  status: ('A' for Active; 'I' for Inactive)
REMARK    1  A    between atoms: C1_1  and  C2_2 
REMARK    2  A    between atoms: C4_4  and  O1_9 
REMARK    3  A    between atoms: C7_7  and  N1_8 
REMARK    4  A    between atoms: O1_9  and  C8_10 
ROOT
ATOM      1  C2  <0> d           0.002  -0.004   0.002  0.00  0.00    -0.033 A 
ATOM      2  C3  <0> d           0.006  -0.688  -1.198  0.00  0.00    -0.043 A 
ATOM      3  C4  <0> d           0.025  -2.075  -1.206  0.00  0.00     0.068 A 
ATOM      4  C5  <0> d           0.040  -2.776  -0.009  0.00  0.00    -0.049 A 
ATOM      5  C6  <0> d           0.036  -2.094   1.192  0.00  0.00    -0.055 A 
ATOM      6  C7  <0> d           0.023  -0.705   1.200  0.00  0.00     0.031 A 
ATOM      7  H4  <0> d          -0.006  -0.143  -2.130  0.00  0.00     0.088 H 
ATOM      8  H5  <0> d           0.054  -3.856  -0.016  0.00  0.00     0.087 H 
ATOM      9  H6  <0> d           0.047  -2.640   2.123  0.00  0.00     0.087 H 
ENDROOT
BRANCH   3  10
ATOM     10  O1  <0> d           0.028  -2.748  -2.388  0.00  0.00    -0.356 OA
BRANCH  10  11
ATOM     11  C8  <0> d           0.047  -4.175  -2.321  0.00  0.00     0.010 C 
ATOM     12  H9  <0> d           0.945  -4.502  -1.796  0.00  0.00     0.066 H 
ATOM     13  H10 <0> d          -0.835  -4.526  -1.787  0.00  0.00     0.066 H 
ATOM     14  H11 <0> d           0.048  -4.586  -3.331  0.00  0.00     0.066 H 
ENDBRANCH  10  11
ENDBRANCH   3  10
BRANCH   1  15
ATOM     15  C1  <0> d          -0.018   1.503   0.010  0.00  0.00    -0.049 C 
ATOM     16  H1  <0> d           1.004   1.880   0.003  0.00  0.00     0.033 H 
ATOM     17  H2  <0> d          -0.545   1.864  -0.873  0.00  0.00     0.033 H 
ATOM     18  H3  <0> d          -0.529   1.854   0.907  0.00  0.00     0.033 H 
ENDBRANCH   1  15
BRANCH   6  19
ATOM     19  N1  <0> d           0.025  -0.012   2.416  0.00  0.00    -0.399 N 
ATOM     20  H7  <0> d           0.012   0.958   2.422  0.00  0.00     0.156 HD
ATOM     21  H8  <0> d           0.040  -0.502   3.253  0.00  0.00     0.156 HD
ENDBRANCH   6  19
TORSDOF 4
