REMARK  2 active torsions:
REMARK  status: ('A' for Active; 'I' for Inactive)
REMARK    1  A    between atoms: C1_1  and  C2_2 
REMARK    2  A    between atoms: C4_6  and  N3_10 
ROOT
ATOM      1  C2  <0> d           0.002  -0.004   0.002  0.00  0.00     0.125 A 
ATOM      2  N1  <0> d           0.004  -0.596  -1.161  0.00  0.00    -0.197 NA
ATOM      3  C3  <0> d           0.022  -1.934  -1.274  0.00  0.00     0.283 A 
ATOM      4  O1  <0> d           0.024  -2.480  -2.359  0.00  0.00    -0.268 OA
ATOM      5  C4  <0> d           0.039  -2.732   0.017  0.00  0.00     0.240 A 
ATOM      6  H1  <0> d           0.929  -3.362   0.017  0.00  0.00     0.112 H 
ATOM      7  C5  <0> d           0.035  -1.918   1.298  0.00  0.00     0.025 A 
ATOM      8  N2  <0> d           0.022  -0.622   1.184  0.00  0.00    -0.247 NA
ATOM      9  H5  <0> d           0.045  -2.396   2.267  0.00  0.00     0.112 H 
ENDROOT
BRANCH   1  10
ATOM     10  C1  <0> d          -0.018   1.503   0.010  0.00  0.00    -0.019 C 
ATOM     11  H2  <0> d           1.004   1.880   0.003  0.00  0.00     0.037 H 
ATOM     12  H3  <0> d          -0.545   1.864  -0.873  0.00  0.00     0.037 H 
ATOM     13  H4  <0> d          -0.529   1.854   0.907  0.00  0.00     0.037 H 
ENDBRANCH   1  10
BRANCH   5  14
ATOM     14  N3  <0> d          -1.139  -3.609   0.031  0.00  0.00     0.097 N 
ATOM     15  H6  <0> d          -1.170  -4.162   0.875  0.00  0.00     0.314 HD
ATOM     16  H7  <0> d          -1.988  -3.076  -0.083  0.00  0.00     0.314 HD
ENDBRANCH   5  14
TORSDOF 2
