REMARK  5 active torsions:
REMARK  status: ('A' for Active; 'I' for Inactive)
REMARK    1  A    between atoms: C1_1  and  C2_2 
REMARK    2  A    between atoms: C2_2  and  C3_4 
REMARK    3  A    between atoms: C2_2  and  O2_8 
REMARK    4  A    between atoms: C3_4  and  C4_6 
REMARK    5  A    between atoms: C3_4  and  O1_7 
ROOT
ATOM      1  C2  <0> d           0.002  -0.004   0.002  0.00  0.00     0.056 C 
ATOM      2  H1  <0> d           0.512  -0.356  -0.895  0.00  0.00     0.086 H 
ENDROOT
BRANCH   1   3
ATOM      3  C1  <0> d          -0.019   1.526   0.010  0.00  0.00    -0.050 C 
ATOM      4  H3  <0> d           1.004   1.903   0.003  0.00  0.00     0.031 H 
ATOM      5  H4  <0> d          -0.546   1.887  -0.873  0.00  0.00     0.031 H 
ATOM      6  H5  <0> d          -0.529   1.877   0.907  0.00  0.00     0.031 H 
ENDBRANCH   1   3
BRANCH   1   7
ATOM      7  C3  <0> d          -1.433  -0.534   0.013  0.00  0.00     0.056 C 
ATOM      8  H2  <0> d          -1.944  -0.182   0.910  0.00  0.00     0.086 H 
BRANCH   7   9
ATOM      9  C4  <0> d          -1.413  -2.063   0.004  0.00  0.00    -0.050 C 
ATOM     10  H6  <0> d          -0.902  -2.415  -0.892  0.00  0.00     0.031 H 
ATOM     11  H7  <0> d          -0.885  -2.425   0.887  0.00  0.00     0.031 H 
ATOM     12  H8  <0> d          -2.435  -2.441   0.012  0.00  0.00     0.031 H 
ENDBRANCH   7   9
BRANCH   7  13
ATOM     13  O1  <0> d          -2.124  -0.060  -1.145  0.00  0.00    -0.393 OA
ATOM     14  H9  <0> d          -3.043  -0.358  -1.204  0.00  0.00     0.210 HD
ENDBRANCH   7  13
ENDBRANCH   1   7
BRANCH   1  15
ATOM     15  O2  <0> d           0.693  -0.477   1.160  0.00  0.00    -0.393 OA
ATOM     16  H10 <0> d           1.611  -0.180   1.219  0.00  0.00     0.210 HD
ENDBRANCH   1  15
TORSDOF 5
