REMARK  1 active torsions:
REMARK  status: ('A' for Active; 'I' for Inactive)
REMARK    1  A    between atoms: C3_4  and  C5_7 
ROOT
ATOM      1  C5  <0> d           3.659  -0.677  -0.037  0.00  0.00     0.095 A 
ATOM      2  C6  <0> d           4.336  -0.883  -1.394  0.00  0.00    -0.038 A 
ATOM      3  C7  <0> d           4.912   0.124  -0.396  0.00  0.00    -0.038 A 
ATOM      4  C8  <0> d           3.800  -1.748   0.963  0.00  0.00     0.075 C 
ATOM      5  N3  <0> d           3.910  -2.574   1.735  0.00  0.00    -0.196 NA
ATOM      6  H4  <0> d           4.886  -1.812  -1.546  0.00  0.00     0.036 H 
ATOM      7  H5  <0> d           3.830  -0.486  -2.274  0.00  0.00     0.036 H 
ATOM      8  H6  <0> d           4.785   1.183  -0.621  0.00  0.00     0.036 H 
ATOM      9  H7  <0> d           5.841  -0.142   0.107  0.00  0.00     0.036 H 
ENDROOT
BRANCH   1  10
ATOM     10  C3  <0> d           2.344   0.059  -0.020  0.00  0.00     0.074 A 
ATOM     11  N1  <0> d           2.326   1.380  -0.013  0.00  0.00    -0.261 NA
ATOM     12  C2  <0> d           1.173   2.025   0.002  0.00  0.00     0.019 A 
ATOM     13  C1  <0> d          -0.016   1.317   0.009  0.00  0.00     0.019 A 
ATOM     14  H2  <0> d           1.159   3.105   0.007  0.00  0.00     0.117 H 
ATOM     15  N2  <0> d           0.002  -0.004   0.002  0.00  0.00    -0.270 NA
ATOM     16  H1  <0> d          -0.958   1.844   0.026  0.00  0.00     0.117 H 
ATOM     17  C4  <0> d           1.155  -0.649  -0.013  0.00  0.00     0.027 A 
ATOM     18  H3  <0> d           1.170  -1.729  -0.018  0.00  0.00     0.117 H 
ENDBRANCH   1  10
TORSDOF 1
