REMARK  5 active torsions:
REMARK  status: ('A' for Active; 'I' for Inactive)
REMARK    1  A    between atoms: C1_1  and  C2_2 
REMARK    2  A    between atoms: C2_2  and  C3_3 
REMARK    3  A    between atoms: C3_3  and  O2_5 
REMARK    4  A    between atoms: O2_5  and  C4_6 
REMARK    5  A    between atoms: C4_6  and  C5_7 
ROOT
ATOM      1  C4  <0> d           0.002  -0.004   0.002  0.00  0.00     0.073 C 
ATOM      2  H6  <0> d           0.512  -0.356  -0.895  0.00  0.00     0.085 H 
ATOM      3  H7  <0> d           0.529  -0.365   0.885  0.00  0.00     0.085 H 
ENDROOT
BRANCH   1   4
ATOM      4  O2  <0> d          -0.018   1.448   0.010  0.00  0.00    -0.315 OA
BRANCH   4   5
ATOM      5  C3  <0> d           1.170   2.073   0.002  0.00  0.00     0.258 C 
ATOM      6  O1  <0> d           2.192   1.429  -0.011  0.00  0.00    -0.265 OA
BRANCH   5   7
ATOM      7  C2  <0> d           1.228   3.579   0.010  0.00  0.00     0.013 C 
ATOM      8  H4  <0> d           0.721   3.967  -0.874  0.00  0.00     0.047 H 
ATOM      9  H5  <0> d           0.738   3.957   0.906  0.00  0.00     0.047 H 
BRANCH   7  10
ATOM     10  C1  <0> d           2.689   4.033  -0.002  0.00  0.00    -0.068 C 
ATOM     11  H1  <0> d           3.197   3.645   0.881  0.00  0.00     0.028 H 
ATOM     12  H2  <0> d           3.180   3.655  -0.899  0.00  0.00     0.028 H 
ATOM     13  H3  <0> d           2.732   5.122   0.004  0.00  0.00     0.028 H 
ENDBRANCH   7  10
ENDBRANCH   5   7
ENDBRANCH   4   5
ENDBRANCH   1   4
BRANCH   1  14
ATOM     14  C5  <0> d          -1.412  -0.526   0.013  0.00  0.00     0.076 A 
ATOM     15  O3  <0> d          -2.136  -0.809   1.108  0.00  0.00    -0.325 OA
ATOM     16  C8  <0> d          -3.351  -1.248   0.740  0.00  0.00     0.019 A 
ATOM     17  C7  <0> d          -3.410  -1.257  -0.604  0.00  0.00    -0.059 A 
ATOM     18  H10 <0> d          -4.144  -1.546   1.409  0.00  0.00     0.123 H 
ATOM     19  C6  <0> d          -2.160  -0.792  -1.073  0.00  0.00    -0.050 A 
ATOM     20  H9  <0> d          -4.252  -1.562  -1.209  0.00  0.00     0.086 H 
ATOM     21  H8  <0> d          -1.863  -0.673  -2.104  0.00  0.00     0.087 H 
ENDBRANCH   1  14
TORSDOF 5
