REMARK  4 active torsions:
REMARK  status: ('A' for Active; 'I' for Inactive)
REMARK    1  A    between atoms: C1_1  and  C2_2 
REMARK    2  A    between atoms: C6_6  and  C8_8 
REMARK    3  A    between atoms: C8_8  and  C9_9 
REMARK    4  A    between atoms: C9_9  and  O1_10 
ROOT
ATOM      1  C2  <0> d           1.681   1.380   4.166  0.00  0.00    -0.061 A 
ATOM      2  C3  <0> d           1.337   0.165   4.728  0.00  0.00    -0.077 A 
ATOM      3  C4  <0> d           0.324  -0.593   4.170  0.00  0.00    -0.082 A 
ATOM      4  C5  <0> d          -0.347  -0.133   3.052  0.00  0.00    -0.077 A 
ATOM      5  C6  <0> d           0.000   1.080   2.488  0.00  0.00    -0.056 A 
ATOM      6  C7  <0> d           1.012   1.838   3.047  0.00  0.00    -0.071 A 
ATOM      7  H4  <0> d           1.859  -0.193   5.603  0.00  0.00     0.084 H 
ATOM      8  H5  <0> d           0.055  -1.542   4.609  0.00  0.00     0.083 H 
ATOM      9  H6  <0> d          -1.141  -0.723   2.618  0.00  0.00     0.084 H 
ATOM     10  H7  <0> d           1.281   2.788   2.608  0.00  0.00     0.085 H 
ENDROOT
BRANCH   5  11
ATOM     11  C8  <0> d          -0.729   1.579   1.267  0.00  0.00    -0.021 C 
ATOM     12  H8  <0> d          -0.744   2.669   1.273  0.00  0.00     0.043 H 
ATOM     13  H9  <0> d          -1.751   1.202   1.275  0.00  0.00     0.043 H 
BRANCH  11  14
ATOM     14  C9  <0> d          -0.013   1.086   0.008  0.00  0.00     0.020 C 
ATOM     15  H10 <0> d           0.002  -0.004   0.002  0.00  0.00     0.074 H 
ATOM     16  H11 <0> d           1.010   1.463   0.000  0.00  0.00     0.074 H 
BRANCH  14  17
ATOM     17  O1  <0> d          -0.704   1.559  -1.150  0.00  0.00    -0.401 OA
ATOM     18  H12 <0> d          -0.304   1.284  -1.986  0.00  0.00     0.209 HD
ENDBRANCH  14  17
ENDBRANCH  11  14
ENDBRANCH   5  11
BRANCH   1  19
ATOM     19  C1  <0> d           2.784   2.206   4.775  0.00  0.00    -0.051 C 
ATOM     20  H1  <0> d           2.365   2.877   5.524  0.00  0.00     0.033 H 
ATOM     21  H2  <0> d           3.514   1.547   5.246  0.00  0.00     0.033 H 
ATOM     22  H3  <0> d           3.273   2.791   3.996  0.00  0.00     0.033 H 
ENDBRANCH   1  19
TORSDOF 4
