REMARK  4 active torsions:
REMARK  status: ('A' for Active; 'I' for Inactive)
REMARK    1  A    between atoms: C1_1  and  O1_2 
REMARK    2  A    between atoms: O1_2  and  C2_3 
REMARK    3  A    between atoms: C2_3  and  C3_5 
REMARK    4  A    between atoms: C3_5  and  C4_6 
ROOT
ATOM      1  C3  <0> d           0.657  -2.104  -1.120  0.00  0.00     0.070 C 
ATOM      2  H5  <0> d           1.195  -2.491  -0.254  0.00  0.00     0.059 H 
ATOM      3  H6  <0> d          -0.355  -2.507  -1.129  0.00  0.00     0.059 H 
ENDROOT
BRANCH   1   4
ATOM      4  C2  <0> d           0.598  -0.600  -1.043  0.00  0.00     0.265 C 
ATOM      5  O2  <0> d           1.088   0.070  -1.921  0.00  0.00    -0.265 OA
BRANCH   4   6
ATOM      6  O1  <0> d           0.002  -0.004   0.002  0.00  0.00    -0.326 OA
BRANCH   6   7
ATOM      7  C1  <0> d          -0.017   1.425   0.010  0.00  0.00     0.013 C 
ATOM      8  H2  <0> d           1.005   1.802   0.002  0.00  0.00     0.067 H 
ATOM      9  H3  <0> d          -0.544   1.786  -0.873  0.00  0.00     0.067 H 
ATOM     10  H4  <0> d          -0.527   1.776   0.907  0.00  0.00     0.067 H 
ENDBRANCH   6   7
ENDBRANCH   4   6
ENDBRANCH   1   4
BRANCH   1  11
ATOM     11  C4  <0> d           1.374  -2.514  -2.380  0.00  0.00     0.112 A 
ATOM     12  N2  <0> d           1.056  -2.145  -3.591  0.00  0.00    -0.246 NA
ATOM     13  C6  <0> d           1.912  -2.698  -4.462  0.00  0.00     0.019 A 
ATOM     14  C5  <0> d           2.789  -3.447  -3.766  0.00  0.00    -0.005 A 
ATOM     15  H8  <0> d           1.899  -2.570  -5.534  0.00  0.00     0.117 H 
ATOM     16  N1  <0> d           2.448  -3.330  -2.445  0.00  0.00    -0.352 N 
ATOM     17  H7  <0> d           3.604  -4.027  -4.171  0.00  0.00     0.113 H 
ATOM     18  H1  <0> d           2.894  -3.755  -1.696  0.00  0.00     0.166 HD
ENDBRANCH   1  11
TORSDOF 4
