REMARK  0 active torsions:
REMARK  status: ('A' for Active; 'I' for Inactive)
ROOT
ATOM      1  C1  <0> d          -0.728   1.579   1.267  0.00  0.00    -0.064 C 
ATOM      2  C2  <0> d          -0.013   1.086   0.008  0.00  0.00    -0.061 C 
ATOM      3  C3  <0> d          -0.751   1.592  -1.231  0.00  0.00    -0.048 C 
ATOM      4  H1  <0> d          -0.218   1.253  -2.131  0.00  0.00     0.040 H 
ATOM      5  C4  <0> d          -0.795   3.119  -1.224  0.00  0.00    -0.058 C 
ATOM      6  C5  <0> d          -1.478   3.626   0.046  0.00  0.00    -0.048 C 
ATOM      7  H2  <0> d          -1.458   4.725   0.049  0.00  0.00     0.040 H 
ATOM      8  C6  <0> d          -0.736   3.109   1.278  0.00  0.00    -0.061 C 
ATOM      9  C7  <0> d          -2.930   3.140   0.079  0.00  0.00    -0.006 C 
ATOM     10  C8  <0> d          -2.939   1.636  -0.081  0.00  0.00     0.127 C 
ATOM     11  O1  <0> d          -3.539   0.934   0.697  0.00  0.00    -0.298 OA
ATOM     12  C9  <0> d          -2.178   1.036  -1.242  0.00  0.00    -0.006 C 
ATOM     13  H3  <0> d          -0.202   1.208   2.159  0.00  0.00     0.033 H 
ATOM     14  H4  <0> d          -1.764   1.207   1.272  0.00  0.00     0.033 H 
ATOM     15  H5  <0> d           1.019   1.466  -0.000  0.00  0.00     0.033 H 
ATOM     16  H6  <0> d           0.002  -0.014   0.002  0.00  0.00     0.033 H 
ATOM     17  H7  <0> d           0.231   3.515  -1.262  0.00  0.00     0.034 H 
ATOM     18  H8  <0> d          -1.358   3.474  -2.100  0.00  0.00     0.034 H 
ATOM     19  H9  <0> d          -1.242   3.467   2.187  0.00  0.00     0.033 H 
ATOM     20  H10 <0> d           0.299   3.481   1.265  0.00  0.00     0.033 H 
ATOM     21  H11 <0> d          -3.388   3.418   1.040  0.00  0.00     0.044 H 
ATOM     22  H12 <0> d          -3.491   3.608  -0.743  0.00  0.00     0.044 H 
ATOM     23  H13 <0> d          -2.668   1.303  -2.190  0.00  0.00     0.044 H 
ATOM     24  H14 <0> d          -2.146  -0.059  -1.142  0.00  0.00     0.044 H 
ENDROOT
TORSDOF 0
