REMARK  4 active torsions:
REMARK  status: ('A' for Active; 'I' for Inactive)
REMARK    1  A    between atoms: C1_1  and  O1_2 
REMARK    2  A    between atoms: O1_2  and  C2_3 
REMARK    3  A    between atoms: C5_6  and  C8_9 
REMARK    4  A    between atoms: C8_9  and  O2_10 
ROOT
ATOM      1  C2  <0> d          -2.013   2.464   3.524  0.00  0.00     0.068 A 
ATOM      2  C3  <0> d          -2.368   1.250   2.954  0.00  0.00    -0.050 A 
ATOM      3  C4  <0> d          -1.720   0.807   1.817  0.00  0.00    -0.072 A 
ATOM      4  C5  <0> d          -0.718   1.572   1.248  0.00  0.00    -0.035 A 
ATOM      5  C6  <0> d          -0.359   2.779   1.818  0.00  0.00    -0.072 A 
ATOM      6  C7  <0> d          -1.008   3.230   2.951  0.00  0.00    -0.050 A 
ATOM      7  H4  <0> d          -3.150   0.652   3.398  0.00  0.00     0.087 H 
ATOM      8  H5  <0> d          -1.995  -0.138   1.372  0.00  0.00     0.084 H 
ATOM      9  H6  <0> d           0.427   3.373   1.374  0.00  0.00     0.084 H 
ATOM     10  H7  <0> d          -0.730   4.175   3.393  0.00  0.00     0.087 H 
ENDROOT
BRANCH   1  11
ATOM     11  O1  <0> d          -2.649   2.902   4.642  0.00  0.00    -0.356 OA
BRANCH  11  12
ATOM     12  C1  <0> d          -2.232   4.161   5.174  0.00  0.00     0.010 C 
ATOM     13  H1  <0> d          -2.819   4.392   6.063  0.00  0.00     0.066 H 
ATOM     14  H2  <0> d          -1.176   4.112   5.439  0.00  0.00     0.066 H 
ATOM     15  H3  <0> d          -2.383   4.940   4.427  0.00  0.00     0.066 H 
ENDBRANCH  11  12
ENDBRANCH   1  11
BRANCH   4  16
ATOM     16  C8  <0> d          -0.013   1.086   0.008  0.00  0.00     0.040 C 
ATOM     17  H8  <0> d           0.002  -0.004   0.002  0.00  0.00     0.081 H 
ATOM     18  H9  <0> d           1.010   1.463   0.000  0.00  0.00     0.081 H 
BRANCH  16  19
ATOM     19  O2  <0> d          -0.704   1.559  -1.150  0.00  0.00    -0.396 OA
ATOM     20  H10 <0> d          -0.304   1.284  -1.986  0.00  0.00     0.209 HD
ENDBRANCH  16  19
ENDBRANCH   4  16
TORSDOF 4
