REMARK  5 active torsions:
REMARK  status: ('A' for Active; 'I' for Inactive)
REMARK    1  A    between atoms: C1_1  and  C2_2 
REMARK    2  A    between atoms: C2_2  and  C3_3 
REMARK    3  A    between atoms: C3_3  and  C4_4 
REMARK    4  A    between atoms: C4_4  and  C5_6 
REMARK    5  A    between atoms: C4_4  and  O2_11 
ROOT
ATOM      1  C4  <0> d          -1.250   2.205   0.020  0.00  0.00     0.082 C 
ATOM      2  H1  <0> d          -2.080   1.649   0.456  0.00  0.00     0.093 H 
ENDROOT
BRANCH   1   3
ATOM      3  C3  <0> d          -1.603   2.609  -1.413  0.00  0.00    -0.036 C 
ATOM      4  H7  <0> d          -0.812   3.240  -1.818  0.00  0.00     0.037 H 
ATOM      5  H8  <0> d          -1.704   1.714  -2.028  0.00  0.00     0.037 H 
BRANCH   3   6
ATOM      6  C2  <0> d          -2.924   3.381  -1.415  0.00  0.00    -0.066 C 
ATOM      7  H5  <0> d          -3.715   2.750  -1.010  0.00  0.00     0.032 H 
ATOM      8  H6  <0> d          -2.823   4.276  -0.800  0.00  0.00     0.032 H 
BRANCH   6   9
ATOM      9  C1  <0> d          -3.276   3.785  -2.848  0.00  0.00    -0.076 C 
ATOM     10  H2  <0> d          -3.378   2.890  -3.463  0.00  0.00     0.027 H 
ATOM     11  H3  <0> d          -4.217   4.335  -2.849  0.00  0.00     0.027 H 
ATOM     12  H4  <0> d          -2.486   4.416  -3.253  0.00  0.00     0.027 H 
ENDBRANCH   6   9
ENDBRANCH   3   6
ENDBRANCH   1   3
BRANCH   1  13
ATOM     13  C5  <0> d          -0.016   1.341   0.009  0.00  0.00     0.081 A 
ATOM     14  O1  <0> d           1.252   1.783  -0.000  0.00  0.00    -0.324 OA
ATOM     15  C8  <0> d           2.091   0.734  -0.014  0.00  0.00     0.019 A 
ATOM     16  C7  <0> d           1.361  -0.395  -0.013  0.00  0.00    -0.059 A 
ATOM     17  H11 <0> d           3.170   0.789  -0.024  0.00  0.00     0.123 H 
ATOM     18  C6  <0> d           0.002  -0.004   0.002  0.00  0.00    -0.050 A 
ATOM     19  H10 <0> d           1.739  -1.407  -0.022  0.00  0.00     0.086 H 
ATOM     20  H9  <0> d          -0.856  -0.659   0.006  0.00  0.00     0.087 H 
ENDBRANCH   1  13
BRANCH   1  21
ATOM     21  O2  <0> d          -1.004   3.378   0.798  0.00  0.00    -0.389 OA
ATOM     22  H12 <0> d          -0.276   3.924   0.468  0.00  0.00     0.210 HD
ENDBRANCH   1  21
TORSDOF 5
