REMARK  2 active torsions:
REMARK  status: ('A' for Active; 'I' for Inactive)
REMARK    1  A    between atoms: C3_3  and  N3_10 
REMARK    2  A    between atoms: C6_6  and  N1_7 
ROOT
ATOM      1  C1  <0> d          -0.017   1.387   0.010  0.00  0.00    -0.056 A 
ATOM      2  C2  <0> d           1.165   2.100   0.002  0.00  0.00    -0.054 A 
ATOM      3  C3  <0> d           2.382   1.433  -0.013  0.00  0.00     0.046 A 
ATOM      4  C4  <0> d           2.409   0.030  -0.021  0.00  0.00     0.072 A 
ATOM      5  C5  <0> d           1.208  -0.684  -0.013  0.00  0.00    -0.035 A 
ATOM      6  C6  <0> d           0.002  -0.004   0.002  0.00  0.00     0.027 A 
ATOM      7  C7  <0> d           3.660  -0.666  -0.038  0.00  0.00     0.102 C 
ATOM      8  N2  <0> d           4.652  -1.218  -0.051  0.00  0.00    -0.191 NA
ATOM      9  H1  <0> d          -0.961   1.911   0.026  0.00  0.00     0.087 H 
ATOM     10  H2  <0> d           1.142   3.180   0.008  0.00  0.00     0.087 H 
ATOM     11  H3  <0> d           1.220  -1.764  -0.019  0.00  0.00     0.089 H 
ENDROOT
BRANCH   3  12
ATOM     12  N3  <0> d           3.574   2.155  -0.022  0.00  0.00    -0.398 N 
ATOM     13  H6  <0> d           3.554   3.125  -0.017  0.00  0.00     0.156 HD
ATOM     14  H7  <0> d           4.424   1.687  -0.033  0.00  0.00     0.156 HD
ENDBRANCH   3  12
BRANCH   6  15
ATOM     15  N1  <0> d          -1.202  -0.719   0.010  0.00  0.00    -0.399 N 
ATOM     16  H4  <0> d          -2.048  -0.244   0.020  0.00  0.00     0.156 HD
ATOM     17  H5  <0> d          -1.190  -1.688   0.004  0.00  0.00     0.156 HD
ENDBRANCH   6  15
TORSDOF 2
