REMARK  0 active torsions:
REMARK  status: ('A' for Active; 'I' for Inactive)
ROOT
ATOM      1  C1  <0> d          -0.013   1.086   0.008  0.00  0.00    -0.063 C 
ATOM      2  C2  <0> d          -0.713   1.572   1.292  0.00  0.00    -0.063 C 
ATOM      3  C3  <0> d          -1.163   3.010   1.205  0.00  0.00    -0.045 C 
ATOM      4  C4  <0> d          -2.623   3.055   0.697  0.00  0.00     0.019 C 
ATOM      5  O1  <0> d          -2.686   2.789  -0.638  0.00  0.00    -0.391 OA
ATOM      6  C5  <0> d          -2.234   1.506  -1.092  0.00  0.00     0.019 C 
ATOM      7  C6  <0> d          -0.734   1.584  -1.252  0.00  0.00    -0.045 C 
ATOM      8  H1  <0> d           0.002  -0.004   0.002  0.00  0.00     0.033 H 
ATOM      9  H2  <0> d           1.013   1.455   0.000  0.00  0.00     0.033 H 
ATOM     10  H3  <0> d          -1.582   0.942   1.480  0.00  0.00     0.033 H 
ATOM     11  H4  <0> d          -0.021   1.472   2.129  0.00  0.00     0.033 H 
ATOM     12  H5  <0> d          -0.520   3.552   0.512  0.00  0.00     0.036 H 
ATOM     13  H6  <0> d          -1.107   3.471   2.192  0.00  0.00     0.036 H 
ATOM     14  H7  <0> d          -3.037   4.045   0.885  0.00  0.00     0.074 H 
ATOM     15  H8  <0> d          -3.212   2.313   1.238  0.00  0.00     0.074 H 
ATOM     16  H9  <0> d          -2.697   1.268  -2.050  0.00  0.00     0.074 H 
ATOM     17  H10 <0> d          -2.489   0.742  -0.357  0.00  0.00     0.074 H 
ATOM     18  H11 <0> d          -0.448   2.619  -1.441  0.00  0.00     0.036 H 
ATOM     19  H12 <0> d          -0.433   0.970  -2.101  0.00  0.00     0.036 H 
ENDROOT
TORSDOF 0
