REMARK  2 active torsions:
REMARK  status: ('A' for Active; 'I' for Inactive)
REMARK    1  A    between atoms: C1_1  and  C2_2 
REMARK    2  A    between atoms: C2_2  and  C3_4 
ROOT
ATOM      1  C3  <0> d          -1.186   3.160   0.030  0.00  0.00     0.067 A 
ATOM      2  C4  <0> d          -1.216   1.757   0.017  0.00  0.00    -0.064 A 
ATOM      3  C5  <0> d          -0.013   1.076   0.008  0.00  0.00    -0.065 A 
ATOM      4  C6  <0> d           1.173   1.790   0.001  0.00  0.00     0.005 A 
ATOM      5  N1  <0> d           1.176   3.109   0.007  0.00  0.00    -0.232 NA
ATOM      6  C7  <0> d           0.057   3.808   0.022  0.00  0.00     0.223 A 
ATOM      7  F1  <0> d           0.109   5.158   0.028  0.00  0.00    -0.183 F 
ATOM      8  H4  <0> d          -2.154   1.223   0.019  0.00  0.00     0.085 H 
ATOM      9  H5  <0> d           0.002  -0.004   0.002  0.00  0.00     0.085 H 
ATOM     10  H6  <0> d           2.112   1.258  -0.011  0.00  0.00     0.114 H 
ENDROOT
BRANCH   1  11
ATOM     11  C2  <0> d          -2.434   3.935   0.047  0.00  0.00     0.160 C 
ATOM     12  O1  <0> d          -2.396   5.147   0.052  0.00  0.00    -0.293 OA
BRANCH  11  13
ATOM     13  C1  <0> d          -3.763   3.223   0.056  0.00  0.00    -0.016 C 
ATOM     14  H1  <0> d          -3.611   2.235   0.049  0.00  0.00     0.038 H 
ATOM     15  H2  <0> d          -4.317   3.500   0.953  0.00  0.00     0.038 H 
ATOM     16  H3  <0> d          -4.334   3.509  -0.827  0.00  0.00     0.038 H 
ENDBRANCH  11  13
ENDBRANCH   1  11
TORSDOF 2
