REMARK  4 active torsions:
REMARK  status: ('A' for Active; 'I' for Inactive)
REMARK    1  A    between atoms: C1_1  and  C2_2 
REMARK    2  A    between atoms: C4_4  and  C7_11 
REMARK       I    between atoms: N1_5  and  C5_7 
REMARK    3  A    between atoms: C5_7  and  O2_9 
REMARK    4  A    between atoms: O2_9  and  C6_10 
ROOT
ATOM      1  C2  <0> d          -2.640   3.516   0.033  0.00  0.00     0.053 A 
ATOM      2  C3  <0> d          -3.336   2.300   0.031  0.00  0.00    -0.034 A 
ATOM      3  C4  <0> d          -2.429   1.300   0.015  0.00  0.00     0.040 A 
ATOM      4  N1  <0> d          -1.191   1.868   0.018  0.00  0.00    -0.181 N 
ATOM      5  N2  <0> d          -1.359   3.259   0.026  0.00  0.00    -0.168 NA
ATOM      6  C5  <0> d          -0.014   1.210   0.009  0.00  0.00     0.387 C 
ATOM      7  O1  <0> d           0.002  -0.004   0.002  0.00  0.00    -0.236 OA
ATOM      8  H4  <0> d          -4.410   2.183   0.035  0.00  0.00     0.089 H 
ENDROOT
BRANCH   3   9
ATOM      9  C7  <0> d          -2.731  -0.177   0.001  0.00  0.00    -0.035 C 
ATOM     10  H8  <0> d          -2.801  -0.543   1.025  0.00  0.00     0.035 H 
ATOM     11  H9  <0> d          -3.677  -0.349  -0.512  0.00  0.00     0.035 H 
ATOM     12  H10 <0> d          -1.933  -0.706  -0.520  0.00  0.00     0.035 H 
ENDBRANCH   3   9
BRANCH   6  13
ATOM     13  O2  <0> d           1.141   1.898   0.001  0.00  0.00    -0.307 OA
BRANCH  13  14
ATOM     14  C6  <0> d           2.370   1.124  -0.015  0.00  0.00     0.015 C 
ATOM     15  H5  <0> d           2.412   0.491   0.872  0.00  0.00     0.067 H 
ATOM     16  H6  <0> d           2.395   0.501  -0.908  0.00  0.00     0.067 H 
ATOM     17  H7  <0> d           3.225   1.800  -0.019  0.00  0.00     0.067 H 
ENDBRANCH  13  14
ENDBRANCH   6  13
BRANCH   1  18
ATOM     18  C1  <0> d          -3.263   4.888   0.043  0.00  0.00    -0.034 C 
ATOM     19  H1  <0> d          -3.418   5.224  -0.982  0.00  0.00     0.035 H 
ATOM     20  H2  <0> d          -4.221   4.849   0.561  0.00  0.00     0.035 H 
ATOM     21  H3  <0> d          -2.600   5.585   0.557  0.00  0.00     0.035 H 
ENDBRANCH   1  18
TORSDOF 4
