REMARK  3 active torsions:
REMARK  status: ('A' for Active; 'I' for Inactive)
REMARK    1  A    between atoms: C1_1  and  C2_2 
REMARK    2  A    between atoms: C3_3  and  C4_4 
REMARK    3  A    between atoms: C9_9  and  O1_10 
ROOT
ATOM      1  C4  <0> d           1.227  -0.682  -0.013  0.00  0.00    -0.003 A 
ATOM      2  C5  <0> d           2.418   0.045  -0.021  0.00  0.00    -0.070 A 
ATOM      3  C6  <0> d           2.382   1.424  -0.013  0.00  0.00    -0.082 A 
ATOM      4  C7  <0> d           1.169   2.090   0.002  0.00  0.00    -0.080 A 
ATOM      5  C8  <0> d          -0.017   1.381   0.010  0.00  0.00    -0.050 A 
ATOM      6  C9  <0> d           0.002  -0.004   0.002  0.00  0.00     0.075 A 
ATOM      7  H6  <0> d           3.366  -0.472  -0.032  0.00  0.00     0.084 H 
ATOM      8  H7  <0> d           3.305   1.985  -0.019  0.00  0.00     0.083 H 
ATOM      9  H8  <0> d           1.150   3.170   0.008  0.00  0.00     0.083 H 
ATOM     10  H9  <0> d          -0.960   1.908   0.017  0.00  0.00     0.087 H 
ENDROOT
BRANCH   1  11
ATOM     11  C3  <0> d           1.258  -2.159  -0.021  0.00  0.00    -0.074 C 
ATOM     12  C2  <0> d           2.420  -2.797  -0.035  0.00  0.00    -0.106 C 
ATOM     13  H4  <0> d           3.344  -2.238  -0.042  0.00  0.00     0.076 H 
ATOM     14  H5  <0> d           0.334  -2.719  -0.015  0.00  0.00     0.084 H 
BRANCH  12  15
ATOM     15  C1  <0> d           2.452  -4.304  -0.043  0.00  0.00    -0.060 C 
ATOM     16  H1  <0> d           1.955  -4.683   0.850  0.00  0.00     0.032 H 
ATOM     17  H2  <0> d           1.937  -4.674  -0.930  0.00  0.00     0.032 H 
ATOM     18  H3  <0> d           3.487  -4.646  -0.055  0.00  0.00     0.032 H 
ENDBRANCH  12  15
ENDBRANCH   1  11
BRANCH   6  19
ATOM     19  O1  <0> d          -1.163  -0.702   0.010  0.00  0.00    -0.360 OA
ATOM     20  H10 <0> d          -1.510  -0.899  -0.871  0.00  0.00     0.217 HD
ENDBRANCH   6  19
TORSDOF 3
