REMARK  2 active torsions:
REMARK  status: ('A' for Active; 'I' for Inactive)
REMARK    1  A    between atoms: C1_1  and  C2_2 
REMARK    2  A    between atoms: C6_7  and  O1_10 
ROOT
ATOM      1  C2  <0> d           2.534   3.726  -0.002  0.00  0.00    -0.055 C 
ATOM      2  H1  <0> d           3.088   3.407   0.881  0.00  0.00     0.039 H 
ATOM      3  C3  <0> d           3.287   3.292  -1.261  0.00  0.00    -0.062 C 
ATOM      4  C4  <0> d           3.429   1.769  -1.270  0.00  0.00    -0.062 C 
ATOM      5  C5  <0> d           2.040   1.127  -1.261  0.00  0.00    -0.041 C 
ATOM      6  C6  <0> d           1.286   1.562  -0.002  0.00  0.00     0.036 C 
ATOM      7  H2  <0> d           1.840   1.243   0.881  0.00  0.00     0.082 H 
ATOM      8  C7  <0> d           1.145   3.085   0.008  0.00  0.00    -0.038 C 
ATOM      9  H6  <0> d           4.277   3.749  -1.268  0.00  0.00     0.033 H 
ATOM     10  H7  <0> d           2.734   3.611  -2.144  0.00  0.00     0.033 H 
ATOM     11  H8  <0> d           3.982   1.450  -0.388  0.00  0.00     0.033 H 
ATOM     12  H9  <0> d           3.966   1.459  -2.167  0.00  0.00     0.033 H 
ATOM     13  H10 <0> d           2.140   0.042  -1.268  0.00  0.00     0.036 H 
ATOM     14  H11 <0> d           1.486   1.446  -2.144  0.00  0.00     0.036 H 
ATOM     15  H12 <0> d           0.591   3.404  -0.875  0.00  0.00     0.037 H 
ATOM     16  H13 <0> d           0.608   3.395   0.904  0.00  0.00     0.037 H 
ENDROOT
BRANCH   1  17
ATOM     17  C1  <0> d           2.393   5.250   0.007  0.00  0.00    -0.073 C 
ATOM     18  H3  <0> d           1.839   5.569  -0.876  0.00  0.00     0.028 H 
ATOM     19  H4  <0> d           1.856   5.559   0.904  0.00  0.00     0.028 H 
ATOM     20  H5  <0> d           3.382   5.707   0.000  0.00  0.00     0.028 H 
ENDBRANCH   1  17
BRANCH   6  21
ATOM     21  O1  <0> d          -0.011   0.963   0.007  0.00  0.00    -0.396 OA
ATOM     22  H14 <0> d           0.002  -0.004   0.002  0.00  0.00     0.210 HD
ENDBRANCH   6  21
TORSDOF 2
