REMARK  1 active torsions:
REMARK  status: ('A' for Active; 'I' for Inactive)
REMARK    1  A    between atoms: C1_1  and  C2_2 
ROOT
ATOM      1  C2  <0> d           0.002  -0.004   0.002  0.00  0.00     0.146 A 
ATOM      2  N1  <0> d          -0.016   1.319   0.009  0.00  0.00    -0.045 NA
ATOM      3  C3  <0> d           1.123   2.003   0.002  0.00  0.00     0.758 A 
ATOM      4  N2  <0> d           1.405   3.324   0.006  0.00  0.00     0.045 NA
ATOM      5  N3  <0> d           2.801   3.452  -0.006  0.00  0.00    -0.128 NA
ATOM      6  C4  <0> d           3.321   2.266  -0.018  0.00  0.00     0.115 A 
ATOM      7  N4  <0> d           2.311   1.337  -0.013  0.00  0.00    -0.082 N 
ATOM      8  C5  <0> d           2.309  -0.011  -0.020  0.00  0.00     0.369 A 
ATOM      9  O1  <0> d           3.361  -0.628  -0.033  0.00  0.00    -0.243 OA
ATOM     10  N5  <0> d           1.145  -0.666  -0.013  0.00  0.00    -0.177 NA
ATOM     11  H4  <0> d           4.378   2.044  -0.029  0.00  0.00     0.148 H 
ENDROOT
BRANCH   1  12
ATOM     12  C1  <0> d          -1.298  -0.765   0.010  0.00  0.00    -0.019 C 
ATOM     13  H1  <0> d          -2.139  -0.056   0.022  0.00  0.00     0.037 H 
ATOM     14  H2  <0> d          -1.345  -1.403   0.905  0.00  0.00     0.037 H 
ATOM     15  H3  <0> d          -1.361  -1.393  -0.891  0.00  0.00     0.037 H 
ENDBRANCH   1  12
TORSDOF 1
