REMARK  3 active torsions:
REMARK  status: ('A' for Active; 'I' for Inactive)
REMARK    1  A    between atoms: C1_1  and  S1_2 
REMARK    2  A    between atoms: S1_2  and  C2_3 
REMARK    3  A    between atoms: C4_6  and  O1_9 
ROOT
ATOM      1  C2  <0> d          -2.443   0.933   1.257  0.00  0.00     0.187 A 
ATOM      2  N1  <0> d          -2.658   0.204   0.172  0.00  0.00    -0.233 NA
ATOM      3  C3  <0> d          -3.832  -0.367  -0.038  0.00  0.00     0.038 A 
ATOM      4  C4  <0> d          -4.849  -0.185   0.892  0.00  0.00     0.100 A 
ATOM      5  C5  <0> d          -4.589   0.591   2.016  0.00  0.00     0.038 A 
ATOM      6  N2  <0> d          -3.389   1.128   2.164  0.00  0.00    -0.233 NA
ATOM      7  H4  <0> d          -3.999  -0.965  -0.922  0.00  0.00     0.119 H 
ATOM      8  H5  <0> d          -5.356   0.753   2.758  0.00  0.00     0.119 H 
ENDROOT
BRANCH   1   9
ATOM      9  S1  <0> d          -0.860   1.669   1.497  0.00  0.00    -0.095 SA
BRANCH   9  10
ATOM     10  C1  <0> d          -0.013   1.086   0.008  0.00  0.00    -0.027 C 
ATOM     11  H1  <0> d           0.002  -0.004   0.002  0.00  0.00     0.042 H 
ATOM     12  H2  <0> d           1.010   1.463   0.000  0.00  0.00     0.042 H 
ATOM     13  H3  <0> d          -0.540   1.447  -0.875  0.00  0.00     0.042 H 
ENDBRANCH   9  10
ENDBRANCH   1   9
BRANCH   4  14
ATOM     14  O1  <0> d          -6.071  -0.754   0.707  0.00  0.00    -0.358 OA
ATOM     15  H6  <0> d          -6.694  -0.198   0.218  0.00  0.00     0.217 HD
ENDBRANCH   4  14
TORSDOF 3
