REMARK  6 active torsions:
REMARK  status: ('A' for Active; 'I' for Inactive)
REMARK    1  A    between atoms: C1_1  and  C2_2 
REMARK    2  A    between atoms: C2_2  and  C3_3 
REMARK    3  A    between atoms: C3_3  and  C6_7 
REMARK    4  A    between atoms: C6_7  and  O2_8 
REMARK    5  A    between atoms: O2_8  and  C7_9 
REMARK    6  A    between atoms: C7_9  and  C8_10 
ROOT
ATOM      1  C3  <0> d          -1.433  -0.534   0.013  0.00  0.00     0.024 C 
ATOM      2  C4  <0> d          -2.083  -0.599  -1.382  0.00  0.00     0.030 C 
ATOM      3  O1  <0> d          -1.577  -1.948  -1.430  0.00  0.00    -0.389 OA
ATOM      4  C5  <0> d          -1.529  -2.071   0.005  0.00  0.00     0.030 C 
ATOM      5  H6  <0> d          -3.171  -0.536  -1.366  0.00  0.00     0.075 H 
ATOM      6  H7  <0> d          -1.627   0.069  -2.113  0.00  0.00     0.075 H 
ATOM      7  H8  <0> d          -0.634  -2.570   0.376  0.00  0.00     0.075 H 
ATOM      8  H9  <0> d          -2.448  -2.458   0.446  0.00  0.00     0.075 H 
ENDROOT
BRANCH   1   9
ATOM      9  C2  <0> d           0.002  -0.004   0.002  0.00  0.00    -0.056 C 
ATOM     10  H4  <0> d           0.512  -0.356  -0.895  0.00  0.00     0.033 H 
ATOM     11  H5  <0> d           0.529  -0.365   0.885  0.00  0.00     0.033 H 
BRANCH   9  12
ATOM     12  C1  <0> d          -0.019   1.526   0.010  0.00  0.00    -0.076 C 
ATOM     13  H1  <0> d           1.004   1.903   0.003  0.00  0.00     0.027 H 
ATOM     14  H2  <0> d          -0.546   1.887  -0.873  0.00  0.00     0.027 H 
ATOM     15  H3  <0> d          -0.529   1.877   0.907  0.00  0.00     0.027 H 
ENDBRANCH   9  12
ENDBRANCH   1   9
BRANCH   1  16
ATOM     16  C6  <0> d          -2.309   0.135   1.074  0.00  0.00     0.031 C 
ATOM     17  H10 <0> d          -1.883  -0.043   2.062  0.00  0.00     0.075 H 
ATOM     18  H11 <0> d          -2.353   1.208   0.886  0.00  0.00     0.075 H 
BRANCH  16  19
ATOM     19  O2  <0> d          -3.628  -0.413   1.018  0.00  0.00    -0.387 OA
BRANCH  19  20
ATOM     20  C7  <0> d          -4.531   0.146   1.974  0.00  0.00     0.034 C 
ATOM     21  H12 <0> d          -4.151  -0.032   2.981  0.00  0.00     0.080 H 
ATOM     22  H13 <0> d          -4.621   1.219   1.805  0.00  0.00     0.080 H 
BRANCH  20  23
ATOM     23  C8  <0> d          -5.883  -0.502   1.827  0.00  0.00    -0.090 C 
ATOM     24  C9  <0> d          -6.542  -0.892   2.889  0.00  0.00    -0.123 C 
ATOM     25  H15 <0> d          -7.512  -1.357   2.783  0.00  0.00     0.066 H 
ATOM     26  H16 <0> d          -6.116  -0.750   3.871  0.00  0.00     0.066 H 
ATOM     27  H14 <0> d          -6.309  -0.644   0.844  0.00  0.00     0.078 H 
ENDBRANCH  20  23
ENDBRANCH  19  20
ENDBRANCH  16  19
ENDBRANCH   1  16
TORSDOF 6
