REMARK  3 active torsions:
REMARK  status: ('A' for Active; 'I' for Inactive)
REMARK    1  A    between atoms: C1_1  and  C2_2 
REMARK    2  A    between atoms: C2_2  and  C3_4 
REMARK    3  A    between atoms: C2_2  and  O1_10 
ROOT
ATOM      1  C3  <0> d           1.105   3.073   0.008  0.00  0.00     0.080 A 
ATOM      2  C4  <0> d          -0.103   3.749   0.022  0.00  0.00     0.028 A 
ATOM      3  N1  <0> d          -1.238   3.072   0.029  0.00  0.00    -0.270 NA
ATOM      4  C5  <0> d          -1.220   1.751   0.017  0.00  0.00     0.019 A 
ATOM      5  C6  <0> d          -0.013   1.076   0.008  0.00  0.00     0.019 A 
ATOM      6  N2  <0> d           1.123   1.752   0.001  0.00  0.00    -0.260 NA
ATOM      7  H5  <0> d          -0.117   4.829   0.028  0.00  0.00     0.118 H 
ATOM      8  H6  <0> d          -2.148   1.198   0.019  0.00  0.00     0.117 H 
ATOM      9  H7  <0> d           0.002  -0.004   0.002  0.00  0.00     0.117 H 
ENDROOT
BRANCH   1  10
ATOM     10  C2  <0> d           2.400   3.844  -0.001  0.00  0.00     0.075 C 
ATOM     11  H1  <0> d           2.915   3.720  -0.965  0.00  0.00     0.092 H 
BRANCH  10  12
ATOM     12  C1  <0> d           3.273   3.389   1.170  0.00  0.00    -0.047 C 
ATOM     13  H2  <0> d           4.218   3.951   1.163  0.00  0.00     0.031 H 
ATOM     14  H3  <0> d           3.485   2.314   1.072  0.00  0.00     0.031 H 
ATOM     15  H4  <0> d           2.742   3.573   2.116  0.00  0.00     0.031 H 
ENDBRANCH  10  12
BRANCH  10  16
ATOM     16  O1  <0> d           2.123   5.241   0.126  0.00  0.00    -0.390 OA
ATOM     17  H8  <0> d           1.505   5.750  -0.628  0.00  0.00     0.210 HD
ENDBRANCH  10  16
ENDBRANCH   1  10
TORSDOF 3
