REMARK  2 active torsions:
REMARK  status: ('A' for Active; 'I' for Inactive)
REMARK    1  A    between atoms: C1_1  and  N1_2 
REMARK    2  A    between atoms: N2_9  and  C6_10 
ROOT
ATOM      1  N1  <0> d           1.222   3.188   0.008  0.00  0.00    -0.258 N 
ATOM      2  C2  <0> d           1.251   1.842   0.000  0.00  0.00     0.261 A 
ATOM      3  O1  <0> d           2.316   1.258  -0.013  0.00  0.00    -0.267 OA
ATOM      4  C3  <0> d          -0.013   1.076   0.008  0.00  0.00    -0.011 A 
ATOM      5  C4  <0> d          -1.181   1.742   0.017  0.00  0.00    -0.011 A 
ATOM      6  C5  <0> d          -1.166   3.220   0.031  0.00  0.00     0.261 A 
ATOM      7  O2  <0> d          -2.212   3.838   0.044  0.00  0.00    -0.267 OA
ATOM      8  N2  <0> d           0.007   3.881   0.023  0.00  0.00    -0.258 N 
ATOM      9  H4  <0> d           0.002  -0.004   0.002  0.00  0.00     0.092 H 
ATOM     10  H5  <0> d          -2.118   1.204   0.018  0.00  0.00     0.092 H 
ENDROOT
BRANCH   1  11
ATOM     11  C1  <0> d           2.481   3.938  -0.001  0.00  0.00     0.004 C 
ATOM     12  H1  <0> d           3.318   3.241  -0.013  0.00  0.00     0.059 H 
ATOM     13  H2  <0> d           2.521   4.570  -0.888  0.00  0.00     0.059 H 
ATOM     14  H3  <0> d           2.539   4.561   0.892  0.00  0.00     0.059 H 
ENDBRANCH   1  11
BRANCH   8  15
ATOM     15  C6  <0> d           0.011   5.346   0.031  0.00  0.00     0.004 C 
ATOM     16  H6  <0> d           0.002   5.715  -0.994  0.00  0.00     0.059 H 
ATOM     17  H7  <0> d          -0.873   5.708   0.555  0.00  0.00     0.059 H 
ATOM     18  H8  <0> d           0.906   5.704   0.539  0.00  0.00     0.059 H 
ENDBRANCH   8  15
TORSDOF 2
