REMARK  4 active torsions:
REMARK  status: ('A' for Active; 'I' for Inactive)
REMARK    1  A    between atoms: C1_1  and  C2_2 
REMARK    2  A    between atoms: C4_4  and  N3_10 
REMARK    3  A    between atoms: C5_6  and  S1_8 
REMARK    4  A    between atoms: S1_8  and  C6_9 
ROOT
ATOM      1  C2  <0> d           0.637   0.645   4.972  0.00  0.00     0.037 A 
ATOM      2  C3  <0> d           1.741  -0.113   4.630  0.00  0.00    -0.016 A 
ATOM      3  C4  <0> d           2.022  -0.308   3.276  0.00  0.00     0.126 A 
ATOM      4  N1  <0> d           1.220   0.235   2.366  0.00  0.00    -0.206 NA
ATOM      5  C5  <0> d           0.174   0.961   2.735  0.00  0.00     0.190 A 
ATOM      6  N2  <0> d          -0.116   1.162   4.013  0.00  0.00    -0.228 NA
ATOM      7  H4  <0> d           2.372  -0.545   5.393  0.00  0.00     0.092 H 
ENDROOT
BRANCH   5   8
ATOM      8  S1  <0> d          -0.860   1.669   1.497  0.00  0.00    -0.095 SA
BRANCH   8   9
ATOM      9  C6  <0> d          -0.013   1.086   0.008  0.00  0.00    -0.027 C 
ATOM     10  H5  <0> d           0.002  -0.004   0.002  0.00  0.00     0.042 H 
ATOM     11  H6  <0> d           1.010   1.463   0.000  0.00  0.00     0.042 H 
ATOM     12  H7  <0> d          -0.540   1.447  -0.875  0.00  0.00     0.042 H 
ENDBRANCH   8   9
ENDBRANCH   5   8
BRANCH   3  13
ATOM     13  N3  <0> d           3.117  -1.061   2.887  0.00  0.00    -0.384 N 
ATOM     14  H8  <0> d           3.696  -1.458   3.557  0.00  0.00     0.157 HD
ATOM     15  H9  <0> d           3.306  -1.192   1.945  0.00  0.00     0.157 HD
ENDBRANCH   3  13
BRANCH   1  16
ATOM     16  C1  <0> d           0.296   0.882   6.420  0.00  0.00    -0.035 C 
ATOM     17  H1  <0> d          -0.369   0.093   6.771  0.00  0.00     0.035 H 
ATOM     18  H2  <0> d           1.209   0.879   7.015  0.00  0.00     0.035 H 
ATOM     19  H3  <0> d          -0.201   1.847   6.523  0.00  0.00     0.035 H 
ENDBRANCH   1  16
TORSDOF 4
