REMARK  1 active torsions:
REMARK  status: ('A' for Active; 'I' for Inactive)
REMARK    1  A    between atoms: C1_1  and  C2_2 
ROOT
ATOM      1  C2  <0> d          -0.718   1.572   1.248  0.00  0.00     0.059 A 
ATOM      2  C3  <0> d          -0.132   1.845   2.467  0.00  0.00     0.064 A 
ATOM      3  C4  <0> d           1.192   1.778   2.948  0.00  0.00    -0.055 A 
ATOM      4  C5  <0> d           1.447   2.124   4.237  0.00  0.00    -0.079 A 
ATOM      5  C6  <0> d           0.392   2.545   5.069  0.00  0.00    -0.068 A 
ATOM      6  C7  <0> d          -0.869   2.606   4.601  0.00  0.00    -0.014 A 
ATOM      7  N1  <0> d          -1.148   2.260   3.304  0.00  0.00    -0.315 N 
ATOM      8  C8  <0> d          -2.290   2.226   2.583  0.00  0.00     0.070 A 
ATOM      9  N2  <0> d          -2.023   1.822   1.367  0.00  0.00    -0.246 NA
ATOM     10  H4  <0> d           1.993   1.454   2.300  0.00  0.00     0.087 H 
ATOM     11  H5  <0> d           2.455   2.078   4.621  0.00  0.00     0.083 H 
ATOM     12  H6  <0> d           0.595   2.820   6.093  0.00  0.00     0.085 H 
ATOM     13  H7  <0> d          -1.668   2.930   5.252  0.00  0.00     0.112 H 
ATOM     14  H8  <0> d          -3.269   2.494   2.951  0.00  0.00     0.144 H 
ENDROOT
BRANCH   1  15
ATOM     15  C1  <0> d          -0.013   1.086   0.008  0.00  0.00    -0.033 C 
ATOM     16  H1  <0> d           0.002  -0.004   0.002  0.00  0.00     0.035 H 
ATOM     17  H2  <0> d           1.010   1.463   0.000  0.00  0.00     0.035 H 
ATOM     18  H3  <0> d          -0.540   1.447  -0.875  0.00  0.00     0.035 H 
ENDBRANCH   1  15
TORSDOF 1
