REMARK  0 active torsions:
REMARK  status: ('A' for Active; 'I' for Inactive)
ROOT
ATOM      1  C1  <0> d          -0.018   1.456   0.010  0.00  0.00    -0.056 A 
ATOM      2  C2  <0> d           1.263   1.866   0.000  0.00  0.00    -0.022 A 
ATOM      3  N1  <0> d           2.099   0.785  -0.014  0.00  0.00    -0.364 N 
ATOM      4  H1  <0> d           3.068   0.831  -0.022  0.00  0.00     0.165 HD
ATOM      5  C3  <0> d           1.363  -0.377  -0.013  0.00  0.00     0.060 A 
ATOM      6  C4  <0> d           0.002  -0.004   0.002  0.00  0.00    -0.004 A 
ATOM      7  C5  <0> d          -0.969  -1.010   0.005  0.00  0.00    -0.032 A 
ATOM      8  C6  <0> d          -0.562  -2.316  -0.006  0.00  0.00     0.126 A 
ATOM      9  N2  <0> d           0.723  -2.635  -0.019  0.00  0.00    -0.246 NA
ATOM     10  C7  <0> d           1.679  -1.728  -0.023  0.00  0.00     0.030 A 
ATOM     11 Cl1  <0> d          -1.753  -3.579  -0.002  0.00  0.00    -0.062 Cl
ATOM     12  H2  <0> d          -0.894   2.086   0.026  0.00  0.00     0.086 H 
ATOM     13  H3  <0> d           1.583   2.897   0.003  0.00  0.00     0.111 H 
ATOM     14  H4  <0> d          -2.020  -0.760   0.017  0.00  0.00     0.089 H 
ATOM     15  H5  <0> d           2.714  -2.038  -0.035  0.00  0.00     0.118 H 
ENDROOT
TORSDOF 0
