REMARK  2 active torsions:
REMARK  status: ('A' for Active; 'I' for Inactive)
REMARK    1  A    between atoms: C4_5  and  N4_11 
REMARK    2  A    between atoms: C6_9  and  O1_10 
ROOT
ATOM      1  C1  <0> d          -0.017   1.401   0.010  0.00  0.00    -0.046 A 
ATOM      2  C2  <0> d           1.158   2.090   0.002  0.00  0.00    -0.033 A 
ATOM      3  C3  <0> d           2.372   1.381  -0.013  0.00  0.00     0.170 A 
ATOM      4  N1  <0> d           3.644   1.771  -0.024  0.00  0.00    -0.042 NA
ATOM      5  C4  <0> d           4.438   0.705  -0.037  0.00  0.00     0.739 A 
ATOM      6  N2  <0> d           3.703  -0.390  -0.036  0.00  0.00     0.027 NA
ATOM      7  N3  <0> d           2.361   0.016  -0.020  0.00  0.00    -0.208 N 
ATOM      8  C5  <0> d           1.185  -0.668  -0.013  0.00  0.00     0.038 A 
ATOM      9  C6  <0> d           0.002  -0.004   0.002  0.00  0.00     0.083 A 
ATOM     10  H1  <0> d          -0.958   1.932   0.026  0.00  0.00     0.087 H 
ATOM     11  H2  <0> d           1.158   3.170   0.008  0.00  0.00     0.089 H 
ATOM     12  H3  <0> d           1.193  -1.748  -0.019  0.00  0.00     0.119 H 
ENDROOT
BRANCH   5  13
ATOM     13  N4  <0> d           5.831   0.738  -0.051  0.00  0.00    -0.230 N 
ATOM     14  H5  <0> d           6.296   1.590  -0.051  0.00  0.00     0.174 HD
ATOM     15  H6  <0> d           6.336  -0.090  -0.061  0.00  0.00     0.174 HD
ENDBRANCH   5  13
BRANCH   9  16
ATOM     16  O1  <0> d          -1.167  -0.699   0.009  0.00  0.00    -0.359 OA
ATOM     17  H4  <0> d          -1.957  -0.141   0.020  0.00  0.00     0.217 HD
ENDBRANCH   9  16
TORSDOF 2
