REMARK  4 active torsions:
REMARK  status: ('A' for Active; 'I' for Inactive)
REMARK    1  A    between atoms: C1_1  and  C2_2 
REMARK    2  A    between atoms: C2_2  and  N1_3 
REMARK       I    between atoms: N1_3  and  C3_4 
REMARK    3  A    between atoms: C3_4  and  C4_6 
REMARK    4  A    between atoms: C4_6  and  N2_7 
ROOT
ATOM      1  N1  <0> d           0.711  -0.489   1.189  0.00  0.00    -0.360 N 
ATOM      2  C3  <0> d           0.854  -1.814   1.394  0.00  0.00     0.237 C 
ATOM      3  O1  <0> d           0.396  -2.604   0.595  0.00  0.00    -0.272 OA
ATOM      4  H6  <0> d           1.077   0.142   1.827  0.00  0.00     0.162 HD
ENDROOT
BRANCH   2   5
ATOM      5  C4  <0> d           1.583  -2.313   2.615  0.00  0.00     0.089 C 
ATOM      6  H7  <0> d           2.605  -1.936   2.607  0.00  0.00     0.082 H 
ATOM      7  H8  <0> d           1.072  -1.962   3.511  0.00  0.00     0.082 H 
BRANCH   5   8
ATOM      8  N2  <0> d           1.603  -3.778   2.607  0.00  0.00    -0.273 N 
ATOM      9  N3  <0> d           0.484  -4.617   2.514  0.00  0.00    -0.185 NA
ATOM     10  C7  <0> d           0.901  -5.857   2.535  0.00  0.00     0.023 A 
ATOM     11  C6  <0> d           2.295  -5.848   2.650  0.00  0.00    -0.048 A 
ATOM     12  H11 <0> d           0.276  -6.736   2.477  0.00  0.00     0.117 H 
ATOM     13  C5  <0> d           2.701  -4.557   2.692  0.00  0.00     0.000 A 
ATOM     14  H10 <0> d           2.934  -6.717   2.697  0.00  0.00     0.087 H 
ATOM     15  H9  <0> d           3.721  -4.213   2.779  0.00  0.00     0.114 H 
ENDBRANCH   5   8
ENDBRANCH   2   5
BRANCH   1  16
ATOM     16  C2  <0> d           0.002  -0.004   0.002  0.00  0.00    -0.008 C 
ATOM     17  H4  <0> d          -1.020  -0.381   0.010  0.00  0.00     0.063 H 
ATOM     18  H5  <0> d           0.512  -0.356  -0.895  0.00  0.00     0.063 H 
BRANCH  16  19
ATOM     19  C1  <0> d          -0.019   1.526   0.010  0.00  0.00    -0.061 C 
ATOM     20  H1  <0> d           1.004   1.903   0.003  0.00  0.00     0.029 H 
ATOM     21  H2  <0> d          -0.546   1.887  -0.873  0.00  0.00     0.029 H 
ATOM     22  H3  <0> d          -0.529   1.877   0.907  0.00  0.00     0.029 H 
ENDBRANCH  16  19
ENDBRANCH   1  16
TORSDOF 4
