REMARK  1 active torsions:
REMARK  status: ('A' for Active; 'I' for Inactive)
REMARK    1  A    between atoms: C1_1  and  C2_2 
ROOT
ATOM      1  C2  <0> d          -0.801   1.618  -1.205  0.00  0.00     0.058 C 
ATOM      2  H1  <0> d          -0.173   2.273  -1.808  0.00  0.00     0.086 H 
ATOM      3  C3  <0> d          -0.013   1.086   0.008  0.00  0.00     0.046 C 
ATOM      4  O1  <0> d          -0.729   1.571   1.163  0.00  0.00    -0.364 OA
ATOM      5  C4  <0> d          -1.447   2.731   0.682  0.00  0.00     0.103 C 
ATOM      6  O2  <0> d          -1.901   2.360  -0.637  0.00  0.00    -0.360 OA
ATOM      7  H5  <0> d           0.002  -0.004   0.002  0.00  0.00     0.078 H 
ATOM      8  H6  <0> d           1.004   1.478   0.000  0.00  0.00     0.078 H 
ATOM      9  H7  <0> d          -0.782   3.592   0.628  0.00  0.00     0.117 H 
ATOM     10  H8  <0> d          -2.297   2.946   1.330  0.00  0.00     0.117 H 
ENDROOT
BRANCH   1  11
ATOM     11  C1  <0> d          -1.325   0.455  -2.051  0.00  0.00    -0.050 C 
ATOM     12  H2  <0> d          -1.983  -0.168  -1.444  0.00  0.00     0.031 H 
ATOM     13  H3  <0> d          -1.880   0.847  -2.903  0.00  0.00     0.031 H 
ATOM     14  H4  <0> d          -0.486  -0.142  -2.407  0.00  0.00     0.031 H 
ENDBRANCH   1  11
TORSDOF 1
