REMARK  4 active torsions:
REMARK  status: ('A' for Active; 'I' for Inactive)
REMARK    1  A    between atoms: C1_1  and  C2_2 
REMARK    2  A    between atoms: C2_2  and  C3_4 
REMARK    3  A    between atoms: C2_2  and  O2_11 
REMARK    4  A    between atoms: C6_7  and  O1_10 
ROOT
ATOM      1  C3  <0> d          -0.018   1.503   0.010  0.00  0.00    -0.030 A 
ATOM      2  C4  <0> d          -1.226   2.177   0.020  0.00  0.00    -0.072 A 
ATOM      3  C5  <0> d          -1.247   3.558   0.033  0.00  0.00    -0.050 A 
ATOM      4  C6  <0> d          -0.056   4.269   0.025  0.00  0.00     0.065 A 
ATOM      5  C7  <0> d           1.154   3.591   0.010  0.00  0.00    -0.050 A 
ATOM      6  C8  <0> d           1.170   2.209   0.003  0.00  0.00    -0.072 A 
ATOM      7  H5  <0> d          -2.153   1.623   0.021  0.00  0.00     0.084 H 
ATOM      8  H6  <0> d          -2.190   4.084   0.044  0.00  0.00     0.087 H 
ATOM      9  H7  <0> d           2.083   4.142   0.004  0.00  0.00     0.087 H 
ATOM     10  H8  <0> d           2.112   1.681  -0.009  0.00  0.00     0.084 H 
ENDROOT
BRANCH   1  11
ATOM     11  C2  <0> d           0.002  -0.004   0.002  0.00  0.00     0.057 C 
ATOM     12  H1  <0> d           0.969  -0.352  -0.361  0.00  0.00     0.089 H 
BRANCH  11  13
ATOM     13  C1  <0> d          -0.228  -0.525   1.422  0.00  0.00    -0.049 C 
ATOM     14  H2  <0> d          -1.195  -0.177   1.785  0.00  0.00     0.031 H 
ATOM     15  H3  <0> d          -0.213  -1.615   1.416  0.00  0.00     0.031 H 
ATOM     16  H4  <0> d           0.561  -0.155   2.077  0.00  0.00     0.031 H 
ENDBRANCH  11  13
BRANCH  11  17
ATOM     17  O2  <0> d          -1.032  -0.490  -0.857  0.00  0.00    -0.391 OA
ATOM     18  H10 <0> d          -1.922  -0.218  -0.594  0.00  0.00     0.210 HD
ENDBRANCH  11  17
ENDBRANCH   1  11
BRANCH   4  19
ATOM     19  O1  <0> d          -0.074   5.628   0.032  0.00  0.00    -0.361 OA
ATOM     20  H9  <0> d          -0.088   6.025  -0.850  0.00  0.00     0.217 HD
ENDBRANCH   4  19
TORSDOF 4
