REMARK  4 active torsions:
REMARK  status: ('A' for Active; 'I' for Inactive)
REMARK    1  A    between atoms: C1_1  and  C2_2 
REMARK    2  A    between atoms: C2_2  and  C3_3 
REMARK    3  A    between atoms: C3_3  and  C4_4 
REMARK    4  A    between atoms: C4_4  and  C5_5 
ROOT
ATOM      1  C4  <0> d          -0.019   1.526   0.010  0.00  0.00    -0.040 C 
ATOM      2  H9  <0> d           1.004   1.903   0.003  0.00  0.00     0.036 H 
ATOM      3  H10 <0> d          -0.546   1.887  -0.873  0.00  0.00     0.036 H 
ENDROOT
BRANCH   1   4
ATOM      4  C3  <0> d          -0.735   2.019   1.269  0.00  0.00    -0.063 C 
ATOM      5  H7  <0> d          -1.757   1.642   1.277  0.00  0.00     0.033 H 
ATOM      6  H8  <0> d          -0.208   1.658   2.152  0.00  0.00     0.033 H 
BRANCH   4   7
ATOM      7  C2  <0> d          -0.756   3.549   1.278  0.00  0.00    -0.068 C 
ATOM      8  H5  <0> d           0.267   3.926   1.270  0.00  0.00     0.032 H 
ATOM      9  H6  <0> d          -1.283   3.910   0.395  0.00  0.00     0.032 H 
BRANCH   7  10
ATOM     10  C1  <0> d          -1.472   4.042   2.536  0.00  0.00    -0.077 C 
ATOM     11  H2  <0> d          -2.494   3.665   2.544  0.00  0.00     0.027 H 
ATOM     12  H3  <0> d          -0.945   3.681   3.420  0.00  0.00     0.027 H 
ATOM     13  H4  <0> d          -1.486   5.132   2.542  0.00  0.00     0.027 H 
ENDBRANCH   7  10
ENDBRANCH   4   7
ENDBRANCH   1   4
BRANCH   1  14
ATOM     14  C5  <0> d           0.002  -0.004   0.002  0.00  0.00     0.048 C 
ATOM     15  H1  <0> d          -1.011  -0.392   0.111  0.00  0.00     0.084 H 
ATOM     16  O2  <0> d           0.846  -0.498   1.081  0.00  0.00    -0.316 OA
ATOM     17  C8  <0> d           1.553  -1.560   0.650  0.00  0.00     0.259 C 
ATOM     18  C7  <0> d           1.843  -1.338  -0.823  0.00  0.00     0.018 C 
ATOM     19  O1  <0> d           1.893  -2.511   1.313  0.00  0.00    -0.265 OA
ATOM     20  C6  <0> d           0.627  -0.518  -1.311  0.00  0.00    -0.032 C 
ATOM     21  H13 <0> d           1.901  -2.290  -1.351  0.00  0.00     0.048 H 
ATOM     22  H14 <0> d           2.765  -0.770  -0.951  0.00  0.00     0.048 H 
ATOM     23  H11 <0> d          -0.075  -1.154  -1.849  0.00  0.00     0.037 H 
ATOM     24  H12 <0> d           0.950   0.315  -1.936  0.00  0.00     0.037 H 
ENDBRANCH   1  14
TORSDOF 4
