REMARK  2 active torsions:
REMARK  status: ('A' for Active; 'I' for Inactive)
REMARK    1  A    between atoms: C1_1  and  C2_2 
REMARK    2  A    between atoms: C2_2  and  C6_7 
ROOT
ATOM      1  C2  <0> d          -0.729   1.579   1.267  0.00  0.00     0.145 C 
ATOM      2  C3  <0> d          -0.739   3.120   1.294  0.00  0.00    -0.025 C 
ATOM      3  C4  <0> d           0.074   3.483   2.560  0.00  0.00    -0.042 C 
ATOM      4  C5  <0> d           0.896   2.191   2.800  0.00  0.00     0.021 C 
ATOM      5  O1  <0> d          -0.021   1.136   2.437  0.00  0.00    -0.369 OA
ATOM      6  H4  <0> d          -0.256   3.520   0.403  0.00  0.00     0.038 H 
ATOM      7  H5  <0> d          -1.760   3.493   1.376  0.00  0.00     0.038 H 
ATOM      8  H6  <0> d          -0.588   3.685   3.403  0.00  0.00     0.036 H 
ATOM      9  H7  <0> d           0.730   4.332   2.371  0.00  0.00     0.036 H 
ATOM     10  H8  <0> d           1.182   2.107   3.848  0.00  0.00     0.074 H 
ATOM     11  H9  <0> d           1.777   2.170   2.159  0.00  0.00     0.074 H 
ENDROOT
BRANCH   1  12
ATOM     12  C1  <0> d          -0.013   1.086   0.008  0.00  0.00    -0.038 C 
ATOM     13  H1  <0> d           0.002  -0.004   0.002  0.00  0.00     0.032 H 
ATOM     14  H2  <0> d           1.010   1.463   0.000  0.00  0.00     0.032 H 
ATOM     15  H3  <0> d          -0.540   1.447  -0.875  0.00  0.00     0.032 H 
ENDBRANCH   1  12
BRANCH   1  16
ATOM     16  C6  <0> d          -2.141   1.054   1.292  0.00  0.00     0.208 C 
ATOM     17  O2  <0> d          -3.047   1.736   0.877  0.00  0.00    -0.646 OA
ATOM     18  O3  <0> d          -2.392  -0.173   1.776  0.00  0.00    -0.646 OA
ENDBRANCH   1  16
TORSDOF 2
