REMARK  4 active torsions:
REMARK  status: ('A' for Active; 'I' for Inactive)
REMARK    1  A    between atoms: C1_1  and  C2_2 
REMARK    2  A    between atoms: C6_6  and  C9_9 
REMARK    3  A    between atoms: C7_7  and  C8_8 
REMARK    4  A    between atoms: C9_9  and  O1_10 
ROOT
ATOM      1  C2  <0> d           2.147   5.237   0.011  0.00  0.00    -0.056 A 
ATOM      2  C3  <0> d           0.891   5.815   0.025  0.00  0.00    -0.077 A 
ATOM      3  C4  <0> d          -0.236   5.016   0.031  0.00  0.00    -0.082 A 
ATOM      4  C5  <0> d          -0.109   3.640   0.023  0.00  0.00    -0.074 A 
ATOM      5  C6  <0> d           1.147   3.062   0.008  0.00  0.00    -0.028 A 
ATOM      6  C7  <0> d           2.275   3.861   0.007  0.00  0.00    -0.048 A 
ATOM      7  H4  <0> d           0.791   6.890   0.032  0.00  0.00     0.084 H 
ATOM      8  H5  <0> d          -1.218   5.467   0.042  0.00  0.00     0.083 H 
ATOM      9  H6  <0> d          -0.990   3.015   0.027  0.00  0.00     0.084 H 
ENDROOT
BRANCH   5  10
ATOM     10  C9  <0> d           1.286   1.562  -0.002  0.00  0.00     0.041 C 
ATOM     11  H10 <0> d           1.840   1.243   0.881  0.00  0.00     0.081 H 
ATOM     12  H11 <0> d           1.823   1.252  -0.899  0.00  0.00     0.081 H 
BRANCH  10  13
ATOM     13  O1  <0> d          -0.011   0.963   0.007  0.00  0.00    -0.396 OA
ATOM     14  H12 <0> d           0.002  -0.004   0.002  0.00  0.00     0.209 HD
ENDBRANCH  10  13
ENDBRANCH   5  10
BRANCH   6  15
ATOM     15  C8  <0> d           3.644   3.232  -0.003  0.00  0.00    -0.050 C 
ATOM     16  H7  <0> d           3.970   3.086  -1.034  0.00  0.00     0.033 H 
ATOM     17  H8  <0> d           4.349   3.886   0.511  0.00  0.00     0.033 H 
ATOM     18  H9  <0> d           3.605   2.268   0.505  0.00  0.00     0.033 H 
ENDBRANCH   6  15
BRANCH   1  19
ATOM     19  C1  <0> d           3.377   6.109   0.005  0.00  0.00    -0.051 C 
ATOM     20  H1  <0> d           3.683   6.313   1.032  0.00  0.00     0.033 H 
ATOM     21  H2  <0> d           4.184   5.595  -0.518  0.00  0.00     0.033 H 
ATOM     22  H3  <0> d           3.155   7.047  -0.502  0.00  0.00     0.033 H 
ENDBRANCH   1  19
TORSDOF 4
