REMARK  3 active torsions:
REMARK  status: ('A' for Active; 'I' for Inactive)
REMARK    1  A    between atoms: C1_1  and  C2_2 
REMARK    2  A    between atoms: N1_5  and  C6_10 
REMARK    3  A    between atoms: N2_8  and  C5_9 
ROOT
ATOM      1  C2  <0> d          -0.729   1.579   1.267  0.00  0.00     0.028 A 
ATOM      2  H1  <0> d          -1.768   1.251   1.268  0.00  0.00     0.074 H 
ATOM      3  C3  <0> d          -0.003   1.082   2.532  0.00  0.00     0.017 A 
ATOM      4  N1  <0> d           0.410   2.320   3.210  0.00  0.00    -0.337 N 
ATOM      5  C4  <0> d           0.008   3.373   2.487  0.00  0.00     0.320 A 
ATOM      6  O1  <0> d           0.219   4.524   2.819  0.00  0.00    -0.247 OA
ATOM      7  N2  <0> d          -0.647   3.044   1.366  0.00  0.00    -0.333 N 
ATOM      8  H5  <0> d          -0.683   0.509   3.163  0.00  0.00     0.067 H 
ATOM      9  H6  <0> d           0.866   0.482   2.264  0.00  0.00     0.067 H 
ENDROOT
BRANCH   1  10
ATOM     10  C1  <0> d          -0.013   1.086   0.008  0.00  0.00    -0.056 C 
ATOM     11  H2  <0> d           0.002  -0.004   0.002  0.00  0.00     0.030 H 
ATOM     12  H3  <0> d           1.010   1.463   0.000  0.00  0.00     0.030 H 
ATOM     13  H4  <0> d          -0.540   1.447  -0.875  0.00  0.00     0.030 H 
ENDBRANCH   1  10
BRANCH   7  14
ATOM     14  C5  <0> d          -1.196   3.993   0.394  0.00  0.00    -0.014 C 
ATOM     15  H7  <0> d          -2.221   4.243   0.669  0.00  0.00     0.056 H 
ATOM     16  H8  <0> d          -0.590   4.899   0.389  0.00  0.00     0.056 H 
ATOM     17  H9  <0> d          -1.185   3.543  -0.599  0.00  0.00     0.056 H 
ENDBRANCH   7  14
BRANCH   4  18
ATOM     18  C6  <0> d           1.146   2.389   4.476  0.00  0.00    -0.014 C 
ATOM     19  H10 <0> d           2.217   2.392   4.274  0.00  0.00     0.056 H 
ATOM     20  H11 <0> d           0.873   3.303   5.004  0.00  0.00     0.056 H 
ATOM     21  H12 <0> d           0.894   1.525   5.090  0.00  0.00     0.056 H 
ENDBRANCH   4  18
TORSDOF 3
