REMARK  7 active torsions:
REMARK  status: ('A' for Active; 'I' for Inactive)
REMARK    1  A    between atoms: C1_1  and  C2_2 
REMARK    2  A    between atoms: C2_2  and  C3_3 
REMARK    3  A    between atoms: C3_3  and  C4_4 
REMARK    4  A    between atoms: C4_4  and  C5_5 
REMARK    5  A    between atoms: C4_4  and  C8_8 
REMARK    6  A    between atoms: C5_5  and  C6_6 
REMARK    7  A    between atoms: C6_6  and  C7_7 
REMARK       I    between atoms: C8_8  and  N1_10 
ROOT
ATOM      1  C4  <0> d          -1.390  -2.066   0.016  0.00  0.00     0.023 C 
ATOM      2  H8  <0> d          -1.336  -2.903   0.712  0.00  0.00     0.054 H 
ENDROOT
BRANCH   1   3
ATOM      3  C3  <0> d          -0.539  -0.908   0.543  0.00  0.00    -0.054 C 
ATOM      4  H6  <0> d          -0.967  -0.537   1.474  0.00  0.00     0.034 H 
ATOM      5  H7  <0> d          -0.520  -0.106  -0.194  0.00  0.00     0.034 H 
BRANCH   3   6
ATOM      6  C2  <0> d           0.888  -1.399   0.798  0.00  0.00    -0.068 C 
ATOM      7  H4  <0> d           1.316  -1.771  -0.133  0.00  0.00     0.032 H 
ATOM      8  H5  <0> d           0.870  -2.202   1.535  0.00  0.00     0.032 H 
BRANCH   6   9
ATOM      9  C1  <0> d           1.739  -0.242   1.325  0.00  0.00    -0.076 C 
ATOM     10  H1  <0> d           2.755  -0.592   1.507  0.00  0.00     0.027 H 
ATOM     11  H2  <0> d           1.757   0.560   0.588  0.00  0.00     0.027 H 
ATOM     12  H3  <0> d           1.310   0.129   2.256  0.00  0.00     0.027 H 
ENDBRANCH   6   9
ENDBRANCH   3   6
ENDBRANCH   1   3
BRANCH   1  13
ATOM     13  C5  <0> d          -2.843  -1.609  -0.121  0.00  0.00    -0.054 C 
ATOM     14  H9  <0> d          -2.885  -0.709  -0.735  0.00  0.00     0.034 H 
ATOM     15  H10 <0> d          -3.430  -2.398  -0.592  0.00  0.00     0.034 H 
BRANCH  13  16
ATOM     16  C6  <0> d          -3.416  -1.306   1.266  0.00  0.00    -0.068 C 
ATOM     17  H11 <0> d          -3.285  -2.176   1.910  0.00  0.00     0.032 H 
ATOM     18  H12 <0> d          -2.892  -0.453   1.696  0.00  0.00     0.032 H 
BRANCH  16  19
ATOM     19  C7  <0> d          -4.906  -0.982   1.143  0.00  0.00    -0.076 C 
ATOM     20  H13 <0> d          -5.314  -0.767   2.130  0.00  0.00     0.027 H 
ATOM     21  H14 <0> d          -5.036  -0.113   0.498  0.00  0.00     0.027 H 
ATOM     22  H15 <0> d          -5.429  -1.835   0.712  0.00  0.00     0.027 H 
ENDBRANCH  16  19
ENDBRANCH  13  16
ENDBRANCH   1  13
BRANCH   1  23
ATOM     23  C8  <0> d          -0.870  -2.498  -1.331  0.00  0.00     0.219 C 
ATOM     24  O1  <0> d          -0.437  -1.674  -2.107  0.00  0.00    -0.273 OA
ATOM     25  N1  <0> d          -0.888  -3.802  -1.673  0.00  0.00    -0.370 N 
ATOM     26  H16 <0> d          -1.167  -4.469  -1.026  0.00  0.00     0.159 HD
ATOM     27  H17 <0> d          -0.621  -4.073  -2.565  0.00  0.00     0.159 HD
ENDBRANCH   1  23
TORSDOF 7
