REMARK  2 active torsions:
REMARK  status: ('A' for Active; 'I' for Inactive)
REMARK    1  A    between atoms: C1_1  and  C2_2 
REMARK    2  A    between atoms: C4_7  and  C6_11 
ROOT
ATOM      1  C2  <0> d          -0.742   1.585  -1.213  0.00  0.00     0.046 A 
ATOM      2  C3  <0> d          -2.115   1.804  -1.183  0.00  0.00     0.190 A 
ATOM      3  O1  <0> d          -2.816   1.573  -0.064  0.00  0.00    -0.171 OA
ATOM      4  N1  <0> d          -2.732   2.251  -2.295  0.00  0.00    -0.324 N 
ATOM      5  H1  <0> d          -3.690   2.406  -2.282  0.00  0.00     0.169 HD
ATOM      6  C4  <0> d          -2.049   2.481  -3.403  0.00  0.00     0.081 A 
ATOM      7  N2  <0> d          -0.743   2.285  -3.469  0.00  0.00    -0.324 N 
ATOM      8  C5  <0> d          -0.056   1.844  -2.396  0.00  0.00     0.190 A 
ATOM      9  O2  <0> d           1.268   1.653  -2.469  0.00  0.00    -0.171 OA
ATOM     10  H5  <0> d          -0.273   2.463  -4.298  0.00  0.00     0.169 HD
ENDROOT
BRANCH   1  11
ATOM     11  C1  <0> d          -0.013   1.086   0.008  0.00  0.00    -0.043 C 
ATOM     12  H2  <0> d           0.002  -0.004   0.002  0.00  0.00     0.034 H 
ATOM     13  H3  <0> d           1.010   1.463   0.000  0.00  0.00     0.034 H 
ATOM     14  H4  <0> d          -0.523   1.437   0.905  0.00  0.00     0.034 H 
ENDBRANCH   1  11
BRANCH   6  15
ATOM     15  C6  <0> d          -2.778   2.981  -4.623  0.00  0.00    -0.023 C 
ATOM     16  H6  <0> d          -2.792   4.071  -4.617  0.00  0.00     0.037 H 
ATOM     17  H7  <0> d          -2.267   2.630  -5.520  0.00  0.00     0.037 H 
ATOM     18  H8  <0> d          -3.800   2.604  -4.616  0.00  0.00     0.037 H 
ENDBRANCH   6  15
TORSDOF 2
