REMARK  0 active torsions:
REMARK  status: ('A' for Active; 'I' for Inactive)
ROOT
ATOM      1  C1  <0> d           0.002  -0.004   0.002  0.00  0.00    -0.082 A 
ATOM      2  C2  <0> d           1.206  -0.683  -0.014  0.00  0.00    -0.082 A 
ATOM      3  C3  <0> d           2.393   0.026  -0.021  0.00  0.00    -0.075 A 
ATOM      4  C4  <0> d           2.375   1.408  -0.013  0.00  0.00    -0.034 A 
ATOM      5  C5  <0> d           1.173   2.093   0.002  0.00  0.00    -0.049 A 
ATOM      6  C6  <0> d          -0.017   1.375   0.010  0.00  0.00    -0.076 A 
ATOM      7  C7  <0> d           1.799   3.472   0.004  0.00  0.00    -0.021 A 
ATOM      8  C8  <0> d           3.127   2.715  -0.013  0.00  0.00     0.060 A 
ATOM      9  H1  <0> d           3.703   2.878  -0.924  0.00  0.00     0.070 H 
ATOM     10  C9  <0> d           3.928   2.922   1.205  0.00  0.00     0.069 C 
ATOM     11  N1  <0> d           4.546   3.082   2.145  0.00  0.00    -0.197 NA
ATOM     12  H2  <0> d          -0.927  -0.555   0.008  0.00  0.00     0.083 H 
ATOM     13  H3  <0> d           1.220  -1.762  -0.019  0.00  0.00     0.083 H 
ATOM     14  H4  <0> d           3.335  -0.501  -0.033  0.00  0.00     0.084 H 
ATOM     15  H5  <0> d          -0.961   1.900   0.017  0.00  0.00     0.084 H 
ATOM     16  H6  <0> d           1.623   4.037   0.919  0.00  0.00     0.042 H 
ATOM     17  H7  <0> d           1.606   4.048  -0.901  0.00  0.00     0.042 H 
ENDROOT
TORSDOF 0
