REMARK  2 active torsions:
REMARK  status: ('A' for Active; 'I' for Inactive)
REMARK    1  A    between atoms: C1_1  and  C2_2 
REMARK    2  A    between atoms: C2_2  and  C3_3 
ROOT
ATOM      1  C3  <0> d           0.707  -0.490  -1.238  0.00  0.00     0.128 A 
ATOM      2  N1  <0> d           0.121  -0.739  -2.396  0.00  0.00    -0.219 NA
ATOM      3  C4  <0> d           1.067  -1.157  -3.278  0.00  0.00     0.178 A 
ATOM      4  C5  <0> d           2.278  -1.151  -2.591  0.00  0.00     0.178 A 
ATOM      5  N2  <0> d           2.005  -0.725  -1.330  0.00  0.00    -0.219 NA
ATOM      6  C6  <0> d           3.561  -1.518  -3.113  0.00  0.00     0.123 C 
ATOM      7  N3  <0> d           4.578  -1.809  -3.526  0.00  0.00    -0.190 NA
ATOM      8  C7  <0> d           0.859  -1.531  -4.645  0.00  0.00     0.123 C 
ATOM      9  N4  <0> d           0.694  -1.828  -5.729  0.00  0.00    -0.190 NA
ENDROOT
BRANCH   1  10
ATOM     10  C2  <0> d           0.002  -0.004   0.002  0.00  0.00    -0.011 C 
ATOM     11  H4  <0> d           0.529  -0.365   0.885  0.00  0.00     0.044 H 
ATOM     12  H5  <0> d          -1.020  -0.381   0.010  0.00  0.00     0.044 H 
BRANCH  10  13
ATOM     13  C1  <0> d          -0.019   1.526   0.010  0.00  0.00    -0.070 C 
ATOM     14  H1  <0> d           1.004   1.903   0.003  0.00  0.00     0.028 H 
ATOM     15  H2  <0> d          -0.546   1.887  -0.873  0.00  0.00     0.028 H 
ATOM     16  H3  <0> d          -0.529   1.877   0.907  0.00  0.00     0.028 H 
ENDBRANCH  10  13
ENDBRANCH   1  10
TORSDOF 2
