REMARK  3 active torsions:
REMARK  status: ('A' for Active; 'I' for Inactive)
REMARK    1  A    between atoms: C1_1  and  O1_2 
REMARK    2  A    between atoms: O1_2  and  C2_3 
REMARK    3  A    between atoms: C7_8  and  O2_9 
ROOT
ATOM      1  C2  <0> d           1.157   3.176   0.008  0.00  0.00     0.104 A 
ATOM      2  C3  <0> d          -0.055   3.848   0.022  0.00  0.00    -0.011 A 
ATOM      3  C4  <0> d          -1.241   3.135   0.030  0.00  0.00     0.119 A 
ATOM      4  C5  <0> d          -1.219   1.750   0.017  0.00  0.00    -0.043 A 
ATOM      5  C6  <0> d          -0.013   1.076   0.008  0.00  0.00    -0.045 A 
ATOM      6  C7  <0> d           1.178   1.784   0.000  0.00  0.00     0.099 A 
ATOM      7  F1  <0> d          -2.422   3.791   0.044  0.00  0.00    -0.206 F 
ATOM      8  H4  <0> d          -0.073   4.928   0.028  0.00  0.00     0.092 H 
ATOM      9  H5  <0> d          -2.146   1.197   0.019  0.00  0.00     0.088 H 
ATOM     10  H6  <0> d           0.002  -0.004   0.002  0.00  0.00     0.088 H 
ENDROOT
BRANCH   1  11
ATOM     11  O1  <0> d           2.324   3.875   0.001  0.00  0.00    -0.353 OA
BRANCH  11  12
ATOM     12  C1  <0> d           2.226   5.300   0.009  0.00  0.00     0.010 C 
ATOM     13  H1  <0> d           3.226   5.733   0.002  0.00  0.00     0.066 H 
ATOM     14  H2  <0> d           1.680   5.632  -0.875  0.00  0.00     0.066 H 
ATOM     15  H3  <0> d           1.696   5.623   0.905  0.00  0.00     0.066 H 
ENDBRANCH  11  12
ENDBRANCH   1  11
BRANCH   6  16
ATOM     16  O2  <0> d           2.365   1.121  -0.015  0.00  0.00    -0.358 OA
ATOM     17  H7  <0> d           2.700   0.934  -0.902  0.00  0.00     0.217 HD
ENDBRANCH   6  16
TORSDOF 3
