REMARK  2 active torsions:
REMARK  status: ('A' for Active; 'I' for Inactive)
REMARK    1  A    between atoms: C1_1  and  C2_2 
REMARK    2  A    between atoms: C7_10  and  N4_11 
ROOT
ATOM      1  C2  <0> d           0.692  -2.674  -0.019  0.00  0.00    -0.030 A 
ATOM      2  C3  <0> d          -0.653  -2.271  -0.004  0.00  0.00    -0.059 A 
ATOM      3  C4  <0> d          -0.974  -0.960   0.006  0.00  0.00    -0.012 A 
ATOM      4  N1  <0> d           0.002  -0.004   0.002  0.00  0.00    -0.296 N 
ATOM      5  C5  <0> d          -0.016   1.356   0.009  0.00  0.00     0.093 A 
ATOM      6  N2  <0> d           1.226   1.766  -0.000  0.00  0.00    -0.143 NA
ATOM      7  N3  <0> d           2.028   0.759  -0.013  0.00  0.00    -0.128 NA
ATOM      8  C6  <0> d           1.327  -0.362  -0.013  0.00  0.00     0.184 A 
ATOM      9  C7  <0> d           1.681  -1.731  -0.024  0.00  0.00     0.080 A 
ATOM     10  H4  <0> d          -1.436  -3.014  -0.001  0.00  0.00     0.086 H 
ATOM     11  H5  <0> d          -2.013  -0.663   0.017  0.00  0.00     0.112 H 
ATOM     12  H6  <0> d          -0.896   1.982   0.017  0.00  0.00     0.147 H 
ENDROOT
BRANCH   1  13
ATOM     13  C1  <0> d           1.043  -4.139  -0.031  0.00  0.00    -0.049 C 
ATOM     14  H1  <0> d           0.120  -4.737  -0.025  0.00  0.00     0.033 H 
ATOM     15  H2  <0> d           1.642  -4.380   0.860  0.00  0.00     0.033 H 
ATOM     16  H3  <0> d           1.624  -4.370  -0.936  0.00  0.00     0.033 H 
ENDBRANCH   1  13
BRANCH   9  17
ATOM     17  N4  <0> d           3.023  -2.114  -0.038  0.00  0.00    -0.396 N 
ATOM     18  H7  <0> d           3.814  -1.348  -0.042  0.00  0.00     0.156 HD
ATOM     19  H8  <0> d           3.291  -3.181  -0.046  0.00  0.00     0.156 HD
ENDBRANCH   9  17
TORSDOF 2
