REMARK  2 active torsions:
REMARK  status: ('A' for Active; 'I' for Inactive)
REMARK    1  A    between atoms: C7_9  and  C8_11 
REMARK    2  A    between atoms: C8_11  and  O1_12 
ROOT
ATOM      1  C1  <0> d          -0.143   3.223  -1.199  0.00  0.00    -0.061 C 
ATOM      2  C2  <0> d          -0.691   1.765  -1.221  0.00  0.00    -0.061 C 
ATOM      3  C3  <0> d          -0.013   1.086   0.008  0.00  0.00    -0.048 C 
ATOM      4  H1  <0> d           0.002  -0.004   0.002  0.00  0.00     0.040 H 
ATOM      5  C4  <0> d           1.386   1.798  -0.002  0.00  0.00    -0.058 C 
ATOM      6  C5  <0> d           0.825   3.264   0.022  0.00  0.00    -0.053 C 
ATOM      7  H2  <0> d           1.567   4.063   0.029  0.00  0.00     0.040 H 
ATOM      8  C6  <0> d          -0.112   3.195   1.266  0.00  0.00    -0.056 C 
ATOM      9  C7  <0> d          -0.667   1.752   1.257  0.00  0.00    -0.030 C 
ATOM     10  H3  <0> d          -1.752   1.763   1.157  0.00  0.00     0.043 H 
ATOM     11  H4  <0> d          -0.953   3.940  -1.067  0.00  0.00     0.033 H 
ATOM     12  H5  <0> d           0.400   3.429  -2.122  0.00  0.00     0.033 H 
ATOM     13  H6  <0> d          -0.415   1.249  -2.140  0.00  0.00     0.033 H 
ATOM     14  H7  <0> d          -1.774   1.775  -1.100  0.00  0.00     0.033 H 
ATOM     15  H8  <0> d           1.968   1.569   0.891  0.00  0.00     0.034 H 
ATOM     16  H9  <0> d           1.945   1.589  -0.913  0.00  0.00     0.034 H 
ATOM     17  H10 <0> d           0.454   3.378   2.179  0.00  0.00     0.034 H 
ATOM     18  H11 <0> d          -0.923   3.916   1.172  0.00  0.00     0.034 H 
ENDROOT
BRANCH   9  19
ATOM     19  C8  <0> d          -0.255   1.014   2.532  0.00  0.00     0.020 C 
ATOM     20  H12 <0> d          -0.501  -0.044   2.436  0.00  0.00     0.074 H 
ATOM     21  H13 <0> d           0.818   1.124   2.686  0.00  0.00     0.074 H 
BRANCH  19  22
ATOM     22  O1  <0> d          -0.955   1.565   3.649  0.00  0.00    -0.400 OA
ATOM     23  H14 <0> d          -0.743   1.145   4.493  0.00  0.00     0.209 HD
ENDBRANCH  19  22
ENDBRANCH   9  19
TORSDOF 2
