REMARK  4 active torsions:
REMARK  status: ('A' for Active; 'I' for Inactive)
REMARK    1  A    between atoms: C1_1  and  O1_2 
REMARK    2  A    between atoms: O1_2  and  C2_3 
REMARK    3  A    between atoms: C4_5  and  N3_10 
REMARK    4  A    between atoms: C5_6  and  N2_9 
ROOT
ATOM      1  C2  <0> d           0.626  -0.619   1.042  0.00  0.00     0.088 A 
ATOM      2  C3  <0> d           0.692  -2.009   1.102  0.00  0.00    -0.020 A 
ATOM      3  C4  <0> d           1.339  -2.593   2.182  0.00  0.00     0.074 A 
ATOM      4  C5  <0> d           1.898  -1.771   3.163  0.00  0.00     0.147 A 
ATOM      5  N1  <0> d           1.813  -0.456   3.068  0.00  0.00    -0.239 NA
ATOM      6  C6  <0> d           1.209   0.130   2.050  0.00  0.00     0.037 A 
ATOM      7  H4  <0> d           0.249  -2.617   0.327  0.00  0.00     0.091 H 
ATOM      8  H5  <0> d           1.164   1.208   2.006  0.00  0.00     0.119 H 
ENDROOT
BRANCH   1   9
ATOM      9  O1  <0> d           0.002  -0.004   0.002  0.00  0.00    -0.354 OA
BRANCH   9  10
ATOM     10  C1  <0> d          -0.017   1.425   0.010  0.00  0.00     0.010 C 
ATOM     11  H1  <0> d           1.005   1.802   0.002  0.00  0.00     0.066 H 
ATOM     12  H2  <0> d          -0.544   1.786  -0.873  0.00  0.00     0.066 H 
ATOM     13  H3  <0> d          -0.527   1.776   0.907  0.00  0.00     0.066 H 
ENDBRANCH   9  10
ENDBRANCH   1   9
BRANCH   3  14
ATOM     14  N3  <0> d           1.430  -3.986   2.286  0.00  0.00    -0.396 N 
ATOM     15  H8  <0> d           1.039  -4.550   1.600  0.00  0.00     0.156 HD
ATOM     16  H9  <0> d           1.884  -4.388   3.043  0.00  0.00     0.156 HD
ENDBRANCH   3  14
BRANCH   4  17
ATOM     17  N2  <0> d           2.551  -2.344   4.255  0.00  0.00    -0.382 N 
ATOM     18  H6  <0> d           2.616  -3.309   4.330  0.00  0.00     0.157 HD
ATOM     19  H7  <0> d           2.941  -1.778   4.939  0.00  0.00     0.157 HD
ENDBRANCH   4  17
TORSDOF 4
