REMARK  1 active torsions:
REMARK  status: ('A' for Active; 'I' for Inactive)
REMARK    1  A    between atoms: C4_5  and  C6_8 
ROOT
ATOM      1  C1  <0> d          -0.017   1.413   0.010  0.00  0.00    -0.019 A 
ATOM      2  C2  <0> d           1.149   2.090   0.002  0.00  0.00    -0.020 A 
ATOM      3  N1  <0> d           2.346   1.452  -0.013  0.00  0.00    -0.374 N 
ATOM      4  C3  <0> d           2.449   0.114  -0.021  0.00  0.00    -0.003 A 
ATOM      5  C4  <0> d           1.313  -0.674  -0.015  0.00  0.00     0.106 A 
ATOM      6  C5  <0> d           0.002  -0.004   0.002  0.00  0.00     0.191 A 
ATOM      7  O1  <0> d          -1.035  -0.648   0.009  0.00  0.00    -0.287 OA
ATOM      8  H1  <0> d          -0.957   1.945   0.026  0.00  0.00     0.091 H 
ATOM      9  H2  <0> d           1.129   3.170   0.008  0.00  0.00     0.111 H 
ATOM     10  H3  <0> d           3.424  -0.350  -0.033  0.00  0.00     0.113 H 
ATOM     11  H4  <0> d           3.158   1.983  -0.017  0.00  0.00     0.164 HD
ENDROOT
BRANCH   5  12
ATOM     12  C6  <0> d           1.411  -2.139  -0.025  0.00  0.00     0.214 C 
ATOM     13  O2  <0> d           2.510  -2.679  -0.040  0.00  0.00    -0.644 OA
ATOM     14  O3  <0> d           0.395  -2.821  -0.020  0.00  0.00    -0.644 OA
ENDBRANCH   5  12
TORSDOF 1
