REMARK  2 active torsions:
REMARK  status: ('A' for Active; 'I' for Inactive)
REMARK    1  A    between atoms: C1_1  and  C2_2 
REMARK    2  A    between atoms: C6_7  and  C9_11 
ROOT
ATOM      1  C2  <0> d           0.068  -4.447   0.744  0.00  0.00    -0.057 A 
ATOM      2  C3  <0> d           0.055  -4.444  -0.661  0.00  0.00    -0.062 A 
ATOM      3  C4  <0> d           0.033  -3.277  -1.339  0.00  0.00    -0.013 A 
ATOM      4  N1  <0> d           0.024  -2.086  -0.672  0.00  0.00    -0.316 N 
ATOM      5  C5  <0> d          -0.003  -0.786  -1.099  0.00  0.00     0.009 A 
ATOM      6  C6  <0> d           0.002  -0.004   0.002  0.00  0.00     0.049 A 
ATOM      7  N2  <0> d           0.022  -0.789   1.082  0.00  0.00    -0.234 NA
ATOM      8  C7  <0> d           0.036  -2.057   0.698  0.00  0.00     0.134 A 
ATOM      9  C8  <0> d           0.058  -3.267   1.420  0.00  0.00    -0.032 A 
ATOM     10  H4  <0> d           0.063  -5.379  -1.201  0.00  0.00     0.086 H 
ATOM     11  H5  <0> d           0.024  -3.286  -2.419  0.00  0.00     0.112 H 
ATOM     12  H6  <0> d          -0.022  -0.449  -2.125  0.00  0.00     0.115 H 
ATOM     13  H7  <0> d           0.069  -3.258   2.500  0.00  0.00     0.090 H 
ENDROOT
BRANCH   1  14
ATOM     14  C1  <0> d           0.092  -5.752   1.497  0.00  0.00    -0.051 C 
ATOM     15  H1  <0> d           1.126  -6.053   1.669  0.00  0.00     0.033 H 
ATOM     16  H2  <0> d          -0.414  -5.628   2.454  0.00  0.00     0.033 H 
ATOM     17  H3  <0> d          -0.417  -6.519   0.913  0.00  0.00     0.033 H 
ENDBRANCH   1  14
BRANCH   6  18
ATOM     18  C9  <0> d          -0.018   1.503   0.010  0.00  0.00    -0.034 C 
ATOM     19  H8  <0> d           1.004   1.880   0.003  0.00  0.00     0.035 H 
ATOM     20  H9  <0> d          -0.545   1.864  -0.873  0.00  0.00     0.035 H 
ATOM     21  H10 <0> d          -0.529   1.854   0.907  0.00  0.00     0.035 H 
ENDBRANCH   6  18
TORSDOF 2
