REMARK  0 active torsions:
REMARK  status: ('A' for Active; 'I' for Inactive)
ROOT
ATOM      1  C1  <0> d          -0.783   3.586   0.028  0.00  0.00    -0.075 A 
ATOM      2  C2  <0> d          -1.070   2.256   0.030  0.00  0.00    -0.038 A 
ATOM      3  C3  <0> d          -0.016   1.322   0.009  0.00  0.00     0.135 A 
ATOM      4  N1  <0> d           0.002  -0.004   0.002  0.00  0.00    -0.241 NA
ATOM      5  C4  <0> d           1.270  -0.426  -0.012  0.00  0.00     0.020 A 
ATOM      6  C5  <0> d           2.083   0.652  -0.014  0.00  0.00     0.006 A 
ATOM      7  N2  <0> d           1.282   1.763  -0.001  0.00  0.00    -0.282 N 
ATOM      8  C6  <0> d           1.557   3.100   0.003  0.00  0.00     0.196 A 
ATOM      9  C7  <0> d           0.554   4.010   0.017  0.00  0.00    -0.028 A 
ATOM     10  F1  <0> d           2.841   3.520  -0.007  0.00  0.00    -0.186 F 
ATOM     11  H1  <0> d          -1.582   4.313   0.039  0.00  0.00     0.083 H 
ATOM     12  H2  <0> d          -2.096   1.919   0.043  0.00  0.00     0.089 H 
ATOM     13  H3  <0> d           1.590  -1.457  -0.021  0.00  0.00     0.117 H 
ATOM     14  H4  <0> d           3.163   0.640  -0.024  0.00  0.00     0.114 H 
ATOM     15  H5  <0> d           0.785   5.065   0.020  0.00  0.00     0.090 H 
ENDROOT
TORSDOF 0
