REMARK  0 active torsions:
REMARK  status: ('A' for Active; 'I' for Inactive)
ROOT
ATOM      1  C1  <0> d          -0.013   1.086   0.008  0.00  0.00     0.051 A 
ATOM      2  C2  <0> d          -0.787   1.609   1.233  0.00  0.00     0.051 A 
ATOM      3  O1  <0> d          -1.899   2.355   0.647  0.00  0.00    -0.296 OA
ATOM      4  C3  <0> d          -1.814   2.297  -0.686  0.00  0.00     0.406 A 
ATOM      5  O2  <0> d          -2.613   2.835  -1.425  0.00  0.00    -0.230 OA
ATOM      6  O3  <0> d          -0.767   1.593  -1.131  0.00  0.00    -0.296 OA
ATOM      7  H1  <0> d           0.011  -0.013  -0.028  0.00  0.00     0.078 H 
ATOM      8  H2  <0> d           1.015   1.476  -0.030  0.00  0.00     0.078 H 
ATOM      9  H3  <0> d          -1.130   0.759   1.841  0.00  0.00     0.078 H 
ATOM     10  H4  <0> d          -0.129   2.250   1.837  0.00  0.00     0.078 H 
ENDROOT
TORSDOF 0
