REMARK  2 active torsions:
REMARK  status: ('A' for Active; 'I' for Inactive)
REMARK    1  A    between atoms: C1_1  and  C2_2 
REMARK    2  A    between atoms: C7_11  and  C9_15 
ROOT
ATOM      1  C2  <0> d           0.002  -0.004   0.002  0.00  0.00     0.029 C 
ATOM      2  H1  <0> d           0.511  -0.363  -0.893  0.00  0.00     0.055 H 
ATOM      3  C3  <0> d          -1.439  -0.548   0.039  0.00  0.00     0.065 C 
ATOM      4  H2  <0> d          -2.036  -0.184  -0.798  0.00  0.00     0.090 H 
ATOM      5  C4  <0> d          -2.046  -0.179   1.379  0.00  0.00    -0.076 C 
ATOM      6  C5  <0> d          -1.808  -1.166   2.215  0.00  0.00    -0.076 C 
ATOM      7  C6  <0> d          -1.033  -2.235   1.468  0.00  0.00     0.065 C 
ATOM      8  H3  <0> d          -1.309  -3.241   1.785  0.00  0.00     0.090 H 
ATOM      9  O1  <0> d          -1.349  -1.993   0.060  0.00  0.00    -0.371 OA
ATOM     10  C7  <0> d           0.469  -1.958   1.663  0.00  0.00     0.029 C 
ATOM     11  H4  <0> d           1.054  -2.619   1.024  0.00  0.00     0.055 H 
ATOM     12  C8  <0> d           0.712  -0.517   1.241  0.00  0.00     0.140 C 
ATOM     13  O2  <0> d           1.435   0.198   1.893  0.00  0.00    -0.297 OA
ATOM     14  H8  <0> d          -2.578   0.732   1.607  0.00  0.00     0.080 H 
ATOM     15  H9  <0> d          -2.112  -1.208   3.251  0.00  0.00     0.080 H 
ENDROOT
BRANCH   1  16
ATOM     16  C1  <0> d          -0.019   1.526   0.010  0.00  0.00    -0.064 C 
ATOM     17  H5  <0> d           1.004   1.903   0.003  0.00  0.00     0.028 H 
ATOM     18  H6  <0> d          -0.546   1.887  -0.873  0.00  0.00     0.028 H 
ATOM     19  H7  <0> d          -0.529   1.877   0.907  0.00  0.00     0.028 H 
ENDBRANCH   1  16
BRANCH  10  20
ATOM     20  C9  <0> d           0.853  -2.176   3.127  0.00  0.00    -0.064 C 
ATOM     21  H10 <0> d           0.638  -3.207   3.410  0.00  0.00     0.028 H 
ATOM     22  H11 <0> d           1.917  -1.978   3.258  0.00  0.00     0.028 H 
ATOM     23  H12 <0> d           0.278  -1.499   3.759  0.00  0.00     0.028 H 
ENDBRANCH  10  20
TORSDOF 2
