REMARK  2 active torsions:
REMARK  status: ('A' for Active; 'I' for Inactive)
REMARK    1  A    between atoms: C1_1  and  C2_2 
REMARK       I    between atoms: C2_2  and  N1_4 
REMARK    2  A    between atoms: N1_4  and  C3_5 
ROOT
ATOM      1  C3  <0> d          -1.256   1.596   0.016  0.00  0.00     0.129 A 
ATOM      2  C4  <0> d          -1.327   2.981  -0.073  0.00  0.00    -0.036 A 
ATOM      3  C5  <0> d          -2.567   3.594  -0.069  0.00  0.00    -0.041 A 
ATOM      4  C6  <0> d          -3.700   2.795   0.036  0.00  0.00     0.134 A 
ATOM      5  C7  <0> d          -3.554   1.423   0.127  0.00  0.00     0.042 A 
ATOM      6  N2  <0> d          -2.357   0.869   0.115  0.00  0.00    -0.240 NA
ATOM      7  F1  <0> d          -4.931   3.354   0.048  0.00  0.00    -0.205 F 
ATOM      8  H5  <0> d          -0.425   3.571  -0.149  0.00  0.00     0.089 H 
ATOM      9  H6  <0> d          -2.653   4.668  -0.141  0.00  0.00     0.088 H 
ATOM     10  H7  <0> d          -4.431   0.798   0.208  0.00  0.00     0.119 H 
ENDROOT
BRANCH   1  11
ATOM     11  N1  <0> d          -0.011   0.966   0.007  0.00  0.00    -0.312 N 
ATOM     12  C2  <0> d           0.063  -0.380  -0.011  0.00  0.00     0.219 C 
ATOM     13  O1  <0> d          -0.948  -1.044   0.069  0.00  0.00    -0.274 OA
ATOM     14  H4  <0> d           0.801   1.496   0.018  0.00  0.00     0.170 HD
BRANCH  12  15
ATOM     15  C1  <0> d           1.403  -1.059  -0.131  0.00  0.00    -0.002 C 
ATOM     16  H1  <0> d           1.813  -1.232   0.865  0.00  0.00     0.040 H 
ATOM     17  H2  <0> d           1.283  -2.013  -0.644  0.00  0.00     0.040 H 
ATOM     18  H3  <0> d           2.083  -0.424  -0.698  0.00  0.00     0.040 H 
ENDBRANCH  12  15
ENDBRANCH   1  11
TORSDOF 2
