REMARK  3 active torsions:
REMARK  status: ('A' for Active; 'I' for Inactive)
REMARK    1  A    between atoms: C1_1  and  C2_2 
REMARK    2  A    between atoms: C2_2  and  O1_3 
REMARK    3  A    between atoms: O1_3  and  C3_4 
ROOT
ATOM      1  C3  <0> d           1.185   2.058   0.002  0.00  0.00     0.071 A 
ATOM      2  C4  <0> d           2.359   1.319  -0.008  0.00  0.00    -0.048 A 
ATOM      3  C5  <0> d           3.582   1.963  -0.022  0.00  0.00    -0.040 A 
ATOM      4  C6  <0> d           3.636   3.346  -0.015  0.00  0.00     0.154 A 
ATOM      5  C7  <0> d           2.465   4.087   0.000  0.00  0.00     0.157 A 
ATOM      6  C8  <0> d           1.240   3.444   0.009  0.00  0.00    -0.011 A 
ATOM      7  F1  <0> d           2.519   5.437   0.007  0.00  0.00    -0.203 F 
ATOM      8  F2  <0> d           4.832   3.974  -0.023  0.00  0.00    -0.203 F 
ATOM      9  H6  <0> d           2.318   0.240  -0.008  0.00  0.00     0.087 H 
ATOM     10  H7  <0> d           4.495   1.387  -0.033  0.00  0.00     0.088 H 
ATOM     11  H8  <0> d           0.327   4.021   0.021  0.00  0.00     0.092 H 
ENDROOT
BRANCH   1  12
ATOM     12  O1  <0> d          -0.017   1.425   0.010  0.00  0.00    -0.351 OA
BRANCH  12  13
ATOM     13  C2  <0> d           0.002  -0.004   0.002  0.00  0.00     0.023 C 
ATOM     14  H4  <0> d           0.512  -0.356  -0.895  0.00  0.00     0.074 H 
ATOM     15  H5  <0> d           0.529  -0.365   0.885  0.00  0.00     0.074 H 
BRANCH  13  16
ATOM     16  C1  <0> d          -1.433  -0.534   0.013  0.00  0.00    -0.056 C 
ATOM     17  H1  <0> d          -1.960  -0.173  -0.870  0.00  0.00     0.030 H 
ATOM     18  H2  <0> d          -1.419  -1.623   0.007  0.00  0.00     0.030 H 
ATOM     19  H3  <0> d          -1.944  -0.182   0.910  0.00  0.00     0.030 H 
ENDBRANCH  13  16
ENDBRANCH  12  13
ENDBRANCH   1  12
TORSDOF 3
