REMARK  3 active torsions:
REMARK  status: ('A' for Active; 'I' for Inactive)
REMARK    1  A    between atoms: C1_1  and  C2_2 
REMARK    2  A    between atoms: C2_2  and  C3_3 
REMARK    3  A    between atoms: C4_4  and  C7_11 
ROOT
ATOM      1  C3  <0> d          -1.412  -0.526   0.013  0.00  0.00     0.021 A 
ATOM      2  C4  <0> d          -2.031  -0.859  -1.151  0.00  0.00    -0.022 A 
ATOM      3  C5  <0> d          -3.343  -1.340  -1.109  0.00  0.00     0.015 A 
ATOM      4  N1  <0> d          -3.959  -1.464   0.049  0.00  0.00    -0.206 NA
ATOM      5  C6  <0> d          -3.346  -1.135   1.188  0.00  0.00     0.346 A 
ATOM      6  O1  <0> d          -3.938  -1.259   2.247  0.00  0.00    -0.245 OA
ATOM      7  N2  <0> d          -2.081  -0.674   1.186  0.00  0.00    -0.310 N 
ATOM      8  H1  <0> d          -1.648  -0.444   2.023  0.00  0.00     0.170 HD
ATOM      9  H7  <0> d          -3.851  -1.609  -2.024  0.00  0.00     0.115 H 
ENDROOT
BRANCH   1  10
ATOM     10  C2  <0> d           0.002  -0.004   0.002  0.00  0.00    -0.029 C 
ATOM     11  H5  <0> d           0.512  -0.356  -0.895  0.00  0.00     0.041 H 
ATOM     12  H6  <0> d           0.529  -0.365   0.885  0.00  0.00     0.041 H 
BRANCH  10  13
ATOM     13  C1  <0> d          -0.019   1.526   0.010  0.00  0.00    -0.071 C 
ATOM     14  H2  <0> d           1.004   1.903   0.003  0.00  0.00     0.028 H 
ATOM     15  H3  <0> d          -0.546   1.887  -0.873  0.00  0.00     0.028 H 
ATOM     16  H4  <0> d          -0.529   1.877   0.907  0.00  0.00     0.028 H 
ENDBRANCH  10  13
ENDBRANCH   1  10
BRANCH   2  17
ATOM     17  C7  <0> d          -1.314  -0.711  -2.468  0.00  0.00    -0.048 C 
ATOM     18  H8  <0> d          -0.785  -1.636  -2.700  0.00  0.00     0.033 H 
ATOM     19  H9  <0> d          -2.038  -0.499  -3.255  0.00  0.00     0.033 H 
ATOM     20  H10 <0> d          -0.599   0.109  -2.402  0.00  0.00     0.033 H 
ENDBRANCH   2  17
TORSDOF 3
