REMARK  3 active torsions:
REMARK  status: ('A' for Active; 'I' for Inactive)
REMARK    1  A    between atoms: C1_1  and  C2_2 
REMARK    2  A    between atoms: C5_5  and  C8_8 
REMARK    3  A    between atoms: C5_5  and  C9_9 
ROOT
ATOM      1  C2  <0> d           0.002  -0.004   0.002  0.00  0.00    -0.087 C 
ATOM      2  C3  <0> d           0.005  -0.605  -1.145  0.00  0.00    -0.100 C 
ATOM      3  C4  <0> d           0.013  -2.096  -1.313  0.00  0.00    -0.040 C 
ATOM      4  C5  <0> d           0.442  -2.771  -0.008  0.00  0.00    -0.024 C 
ATOM      5  C6  <0> d          -0.386  -2.179   1.139  0.00  0.00    -0.052 C 
ATOM      6  C7  <0> d           0.024  -0.715   1.324  0.00  0.00    -0.044 C 
ATOM      7  H4  <0> d          -0.000   0.005  -2.036  0.00  0.00     0.077 H 
ATOM      8  H5  <0> d          -0.987  -2.435  -1.583  0.00  0.00     0.040 H 
ATOM      9  H6  <0> d           0.711  -2.366  -2.105  0.00  0.00     0.040 H 
ATOM     10  H7  <0> d          -1.446  -2.238   0.894  0.00  0.00     0.035 H 
ATOM     11  H8  <0> d          -0.188  -2.732   2.058  0.00  0.00     0.035 H 
ATOM     12  H9  <0> d           1.029  -0.667   1.742  0.00  0.00     0.039 H 
ATOM     13  H10 <0> d          -0.673  -0.229   2.007  0.00  0.00     0.039 H 
ENDROOT
BRANCH   4  14
ATOM     14  C8  <0> d           1.929  -2.508   0.242  0.00  0.00    -0.066 C 
ATOM     15  H11 <0> d           2.101  -1.435   0.317  0.00  0.00     0.028 H 
ATOM     16  H12 <0> d           2.231  -2.990   1.172  0.00  0.00     0.028 H 
ATOM     17  H13 <0> d           2.513  -2.913  -0.584  0.00  0.00     0.028 H 
ENDBRANCH   4  14
BRANCH   4  18
ATOM     18  C9  <0> d           0.194  -4.254  -0.100  0.00  0.00    -0.104 C 
ATOM     19  C10 <0> d          -0.319  -4.766  -1.191  0.00  0.00    -0.124 C 
ATOM     20  H15 <0> d          -0.563  -4.126  -2.025  0.00  0.00     0.066 H 
ATOM     21  H16 <0> d          -0.497  -5.830  -1.256  0.00  0.00     0.066 H 
ATOM     22  H14 <0> d           0.438  -4.895   0.735  0.00  0.00     0.076 H 
ENDBRANCH   4  18
BRANCH   1  23
ATOM     23  C1  <0> d          -0.018   1.503   0.010  0.00  0.00    -0.055 C 
ATOM     24  H1  <0> d           1.004   1.880   0.003  0.00  0.00     0.033 H 
ATOM     25  H2  <0> d          -0.545   1.864  -0.873  0.00  0.00     0.033 H 
ATOM     26  H3  <0> d          -0.529   1.854   0.907  0.00  0.00     0.033 H 
ENDBRANCH   1  23
TORSDOF 3
