REMARK  3 active torsions:
REMARK  status: ('A' for Active; 'I' for Inactive)
REMARK    1  A    between atoms: C1_1  and  C2_2 
REMARK    2  A    between atoms: C4_4  and  C8_10 
REMARK    3  A    between atoms: C5_5  and  O1_9 
ROOT
ATOM      1  C2  <0> d           1.208  -0.681  -0.014  0.00  0.00    -0.060 A 
ATOM      2  C3  <0> d           0.002  -0.004   0.002  0.00  0.00    -0.069 A 
ATOM      3  C4  <0> d          -0.017   1.377   0.010  0.00  0.00    -0.027 A 
ATOM      4  C5  <0> d           1.175   2.086   0.002  0.00  0.00     0.093 A 
ATOM      5  C6  <0> d           2.385   1.405  -0.012  0.00  0.00     0.068 A 
ATOM      6  C7  <0> d           2.398   0.023  -0.021  0.00  0.00    -0.053 A 
ATOM      7 Cl1  <0> d           3.880   2.288  -0.021  0.00  0.00    -0.081 Cl
ATOM      8  H4  <0> d          -0.926  -0.556   0.008  0.00  0.00     0.085 H 
ATOM      9  H5  <0> d           3.338  -0.508  -0.033  0.00  0.00     0.087 H 
ENDROOT
BRANCH   1  10
ATOM     10  C1  <0> d           1.225  -2.188  -0.022  0.00  0.00    -0.051 C 
ATOM     11  H1  <0> d           1.219  -2.545  -1.052  0.00  0.00     0.033 H 
ATOM     12  H2  <0> d           2.124  -2.544   0.481  0.00  0.00     0.033 H 
ATOM     13  H3  <0> d           0.344  -2.564   0.498  0.00  0.00     0.033 H 
ENDBRANCH   1  10
BRANCH   3  14
ATOM     14  C8  <0> d          -1.332   2.114   0.020  0.00  0.00    -0.049 C 
ATOM     15  H7  <0> d          -1.644   2.285   1.050  0.00  0.00     0.033 H 
ATOM     16  H8  <0> d          -1.216   3.070  -0.489  0.00  0.00     0.033 H 
ATOM     17  H9  <0> d          -2.086   1.517  -0.494  0.00  0.00     0.033 H 
ENDBRANCH   3  14
BRANCH   4  18
ATOM     18  O1  <0> d           1.159   3.445   0.009  0.00  0.00    -0.358 OA
ATOM     19  H6  <0> d           1.163   3.834   0.894  0.00  0.00     0.217 HD
ENDBRANCH   4  18
TORSDOF 3
