REMARK  2 active torsions:
REMARK  status: ('A' for Active; 'I' for Inactive)
REMARK    1  A    between atoms: C6_6  and  C7_7 
REMARK    2  A    between atoms: C7_7  and  O1_8 
ROOT
ATOM      1  C1  <0> d           1.078   3.753  -1.195  0.00  0.00    -0.072 A 
ATOM      2  C2  <0> d           0.945   5.123  -1.206  0.00  0.00    -0.053 A 
ATOM      3  C3  <0> d           0.891   5.820  -0.004  0.00  0.00     0.082 A 
ATOM      4  C4  <0> d           0.967   5.122   1.214  0.00  0.00     0.109 A 
ATOM      5  C5  <0> d           1.096   3.727   1.198  0.00  0.00    -0.043 A 
ATOM      6  C6  <0> d           1.147   3.062   0.008  0.00  0.00    -0.032 A 
ATOM      7  N1  <0> d           0.892   6.028   2.209  0.00  0.00    -0.130 NA
ATOM      8  N2  <0> d           0.777   7.215   1.726  0.00  0.00    -0.067 NA
ATOM      9  N3  <0> d           0.771   7.149   0.325  0.00  0.00    -0.258 N 
ATOM     10  H1  <0> d           0.693   7.907  -0.469  0.00  0.00     0.191 HD
ATOM     11  H2  <0> d           1.124   3.211  -2.128  0.00  0.00     0.084 H 
ATOM     12  H3  <0> d           0.887   5.655  -2.145  0.00  0.00     0.087 H 
ATOM     13  H4  <0> d           1.156   3.179   2.126  0.00  0.00     0.088 H 
ENDROOT
BRANCH   6  14
ATOM     14  C7  <0> d           1.286   1.562  -0.002  0.00  0.00     0.041 C 
ATOM     15  H5  <0> d           1.828   1.250  -0.907  0.00  0.00     0.081 H 
ATOM     16  H6  <0> d           1.845   1.240   0.889  0.00  0.00     0.081 H 
BRANCH  14  17
ATOM     17  O1  <0> d          -0.011   0.963   0.007  0.00  0.00    -0.396 OA
ATOM     18  H7  <0> d          -0.111  -0.133   0.002  0.00  0.00     0.209 HD
ENDBRANCH  14  17
ENDBRANCH   6  14
TORSDOF 2
