REMARK  3 active torsions:
REMARK  status: ('A' for Active; 'I' for Inactive)
REMARK    1  A    between atoms: C1_1  and  C2_2 
REMARK    2  A    between atoms: C3_3  and  N2_10 
REMARK    3  A    between atoms: C5_5  and  N1_9 
ROOT
ATOM      1  C2  <0> d           1.216  -0.681  -0.013  0.00  0.00    -0.014 A 
ATOM      2  C3  <0> d           0.002  -0.004   0.002  0.00  0.00     0.035 A 
ATOM      3  C4  <0> d          -0.017   1.383   0.010  0.00  0.00    -0.032 A 
ATOM      4  C5  <0> d           1.177   2.091   0.002  0.00  0.00     0.029 A 
ATOM      5  C6  <0> d           2.388   1.409  -0.013  0.00  0.00    -0.036 A 
ATOM      6  C7  <0> d           2.403   0.026  -0.021  0.00  0.00     0.044 A 
ATOM      7 Cl1  <0> d           3.917  -0.823  -0.039  0.00  0.00    -0.084 Cl
ATOM      8  H4  <0> d          -0.959   1.912   0.017  0.00  0.00     0.090 H 
ATOM      9  H5  <0> d           3.317   1.959  -0.019  0.00  0.00     0.089 H 
ENDROOT
BRANCH   1  10
ATOM     10  C1  <0> d           1.237  -2.188  -0.021  0.00  0.00    -0.048 C 
ATOM     11  H1  <0> d           0.205  -2.569  -0.013  0.00  0.00     0.033 H 
ATOM     12  H2  <0> d           1.769  -2.552   0.870  0.00  0.00     0.033 H 
ATOM     13  H3  <0> d           1.752  -2.543  -0.926  0.00  0.00     0.033 H 
ENDBRANCH   1  10
BRANCH   2  14
ATOM     14  N2  <0> d          -1.198  -0.719   0.009  0.00  0.00    -0.399 N 
ATOM     15  H8  <0> d          -2.158  -0.183   0.021  0.00  0.00     0.156 HD
ATOM     16  H9  <0> d          -1.182  -1.819   0.003  0.00  0.00     0.156 HD
ENDBRANCH   2  14
BRANCH   4  17
ATOM     17  N1  <0> d           1.162   3.488   0.009  0.00  0.00    -0.399 N 
ATOM     18  H6  <0> d           2.108   4.048   0.003  0.00  0.00     0.156 HD
ATOM     19  H7  <0> d           0.203   4.027   0.021  0.00  0.00     0.156 HD
ENDBRANCH   4  17
TORSDOF 3
