REMARK  0 active torsions:
REMARK  status: ('A' for Active; 'I' for Inactive)
ROOT
ATOM      1  C1  <0> d          -0.019   1.534   0.011  0.00  0.00     0.011 C 
ATOM      2  C2  <0> d           1.518   1.476  -0.004  0.00  0.00     0.041 C 
ATOM      3  C3  <0> d           1.394   0.090   0.649  0.00  0.00     0.011 C 
ATOM      4  C4  <0> d           0.002  -0.004   0.002  0.00  0.00     0.246 C 
ATOM      5  F1  <0> d           0.017  -0.557  -1.283  0.00  0.00    -0.206 F 
ATOM      6  F2  <0> d          -0.964  -0.582   0.833  0.00  0.00    -0.206 F 
ATOM      7  C5  <0> d           2.093   1.441  -1.359  0.00  0.00     0.064 C 
ATOM      8  N1  <0> d           2.538   1.413  -2.404  0.00  0.00    -0.197 NA
ATOM      9  H1  <0> d          -0.431   1.960   0.925  0.00  0.00     0.043 H 
ATOM     10  H2  <0> d          -0.448   1.969  -0.892  0.00  0.00     0.043 H 
ATOM     11  H3  <0> d           1.989   2.221   0.637  0.00  0.00     0.063 H 
ATOM     12  H4  <0> d           2.105  -0.640   0.262  0.00  0.00     0.043 H 
ATOM     13  H5  <0> d           1.368   0.121   1.738  0.00  0.00     0.043 H 
ENDROOT
TORSDOF 0
