REMARK  3 active torsions:
REMARK  status: ('A' for Active; 'I' for Inactive)
REMARK    1  A    between atoms: C1_1  and  C2_2 
REMARK    2  A    between atoms: C2_2  and  N1_3 
REMARK    3  A    between atoms: C3_4  and  C6_8 
ROOT
ATOM      1  N1  <0> d           2.511   1.577  -0.008  0.00  0.00    -0.264 N 
ATOM      2  C3  <0> d           1.247   2.096   0.001  0.00  0.00     0.130 A 
ATOM      3  C4  <0> d           1.394   3.473   0.008  0.00  0.00    -0.030 A 
ATOM      4  C5  <0> d           2.773   3.697  -0.003  0.00  0.00     0.024 A 
ATOM      5  N2  <0> d           3.369   2.533  -0.015  0.00  0.00    -0.184 NA
ATOM      6  H6  <0> d           0.610   4.216   0.020  0.00  0.00     0.089 H 
ATOM      7  H7  <0> d           3.260   4.661  -0.002  0.00  0.00     0.117 H 
ENDROOT
BRANCH   1   8
ATOM      8  C2  <0> d           2.837   0.149  -0.012  0.00  0.00     0.014 C 
ATOM      9  H4  <0> d           3.789  -0.008   0.495  0.00  0.00     0.066 H 
ATOM     10  H5  <0> d           2.054  -0.404   0.506  0.00  0.00     0.066 H 
BRANCH   8  11
ATOM     11  C1  <0> d           2.941  -0.346  -1.456  0.00  0.00    -0.059 C 
ATOM     12  H1  <0> d           1.989  -0.189  -1.964  0.00  0.00     0.029 H 
ATOM     13  H2  <0> d           3.724   0.207  -1.975  0.00  0.00     0.029 H 
ATOM     14  H3  <0> d           3.184  -1.409  -1.460  0.00  0.00     0.029 H 
ENDBRANCH   8  11
ENDBRANCH   1   8
BRANCH   2  15
ATOM     15  C6  <0> d          -0.016   1.344   0.009  0.00  0.00     0.228 C 
ATOM     16  O1  <0> d          -1.077   1.937   0.018  0.00  0.00    -0.643 OA
ATOM     17  O2  <0> d           0.002  -0.004   0.002  0.00  0.00    -0.643 OA
ENDBRANCH   2  15
TORSDOF 3
