REMARK  2 active torsions:
REMARK  status: ('A' for Active; 'I' for Inactive)
REMARK    1  A    between atoms: C1_1  and  C2_2 
REMARK    2  A    between atoms: C6_6  and  N2_8 
ROOT
ATOM      1  C2  <0> d           0.002  -0.004   0.002  0.00  0.00     0.033 A 
ATOM      2  C3  <0> d           0.005  -0.679  -1.203  0.00  0.00    -0.059 A 
ATOM      3  C4  <0> d           0.024  -2.067  -1.204  0.00  0.00    -0.077 A 
ATOM      4  C5  <0> d           0.039  -2.728   0.013  0.00  0.00    -0.038 A 
ATOM      5  C6  <0> d           0.035  -1.984   1.186  0.00  0.00     0.133 A 
ATOM      6  N1  <0> d           0.022  -0.661   1.145  0.00  0.00    -0.236 NA
ATOM      7  H4  <0> d          -0.007  -0.133  -2.135  0.00  0.00     0.086 H 
ATOM      8  H5  <0> d           0.027  -2.619  -2.132  0.00  0.00     0.083 H 
ATOM      9  H6  <0> d           0.054  -3.807   0.049  0.00  0.00     0.089 H 
ENDROOT
BRANCH   5  10
ATOM     10  N2  <0> d           0.049  -2.639   2.421  0.00  0.00    -0.318 N 
ATOM     11  C10 <0> d           0.046  -2.031   3.645  0.00  0.00    -0.014 A 
ATOM     12  C9  <0> d           0.061  -2.991   4.591  0.00  0.00    -0.066 A 
ATOM     13  H10 <0> d           0.033  -0.966   3.824  0.00  0.00     0.112 H 
ATOM     14  C8  <0> d           0.082  -4.237   3.930  0.00  0.00    -0.066 A 
ATOM     15  H9  <0> d           0.060  -2.835   5.660  0.00  0.00     0.085 H 
ATOM     16  C7  <0> d           0.074  -3.992   2.605  0.00  0.00    -0.014 A 
ATOM     17  H8  <0> d           0.100  -5.209   4.401  0.00  0.00     0.085 H 
ATOM     18  H7  <0> d           0.085  -4.738   1.823  0.00  0.00     0.112 H 
ENDBRANCH   5  10
BRANCH   1  19
ATOM     19  C1  <0> d          -0.018   1.503   0.010  0.00  0.00    -0.035 C 
ATOM     20  H1  <0> d           1.004   1.880   0.003  0.00  0.00     0.035 H 
ATOM     21  H2  <0> d          -0.545   1.864  -0.873  0.00  0.00     0.035 H 
ATOM     22  H3  <0> d          -0.529   1.854   0.907  0.00  0.00     0.035 H 
ENDBRANCH   1  19
TORSDOF 2
