REMARK  5 active torsions:
REMARK  status: ('A' for Active; 'I' for Inactive)
REMARK    1  A    between atoms: C1_1  and  C2_2 
REMARK    2  A    between atoms: C5_5  and  C8_9 
REMARK    3  A    between atoms: C8_9  and  C9_11 
REMARK    4  A    between atoms: C8_9  and  C10_12 
REMARK    5  A    between atoms: C10_12  and  O1_13 
ROOT
ATOM      1  C2  <0> d          -2.813   0.999   0.015  0.00  0.00    -0.087 C 
ATOM      2  C3  <0> d          -2.227   1.302  -1.099  0.00  0.00    -0.101 C 
ATOM      3  C4  <0> d          -0.761   1.597  -1.225  0.00  0.00    -0.046 C 
ATOM      4  C5  <0> d          -0.013   1.086   0.008  0.00  0.00    -0.046 C 
ATOM      5  H1  <0> d           0.002  -0.004   0.002  0.00  0.00     0.041 H 
ATOM      6  C6  <0> d          -0.739   1.585   1.264  0.00  0.00    -0.058 C 
ATOM      7  C7  <0> d          -2.106   0.892   1.335  0.00  0.00    -0.045 C 
ATOM      8  H6  <0> d          -2.831   1.345  -1.993  0.00  0.00     0.077 H 
ATOM      9  H7  <0> d          -0.616   2.673  -1.315  0.00  0.00     0.039 H 
ATOM     10  H8  <0> d          -0.370   1.104  -2.115  0.00  0.00     0.039 H 
ATOM     11  H9  <0> d          -0.152   1.340   2.148  0.00  0.00     0.034 H 
ATOM     12  H10 <0> d          -0.880   2.664   1.201  0.00  0.00     0.034 H 
ATOM     13  H11 <0> d          -2.711   1.365   2.108  0.00  0.00     0.039 H 
ATOM     14  H12 <0> d          -1.961  -0.160   1.582  0.00  0.00     0.039 H 
ENDROOT
BRANCH   4  15
ATOM     15  C8  <0> d           1.421   1.620  -0.003  0.00  0.00    -0.033 C 
ATOM     16  H2  <0> d           1.403   2.709   0.003  0.00  0.00     0.043 H 
BRANCH  15  17
ATOM     17  C9  <0> d           2.163   1.115   1.237  0.00  0.00    -0.071 C 
ATOM     18  H13 <0> d           2.181   0.025   1.231  0.00  0.00     0.028 H 
ATOM     19  H14 <0> d           3.184   1.495   1.229  0.00  0.00     0.028 H 
ATOM     20  H15 <0> d           1.651   1.465   2.134  0.00  0.00     0.028 H 
ENDBRANCH  15  17
BRANCH  15  21
ATOM     21  C10 <0> d           2.139   1.128  -1.262  0.00  0.00     0.020 C 
ATOM     22  H16 <0> d           2.235   0.043  -1.225  0.00  0.00     0.074 H 
ATOM     23  H17 <0> d           1.563   1.412  -2.142  0.00  0.00     0.074 H 
BRANCH  21  24
ATOM     24  O1  <0> d           3.438   1.720  -1.331  0.00  0.00    -0.400 OA
ATOM     25  H18 <0> d           3.951   1.453  -2.106  0.00  0.00     0.209 HD
ENDBRANCH  21  24
ENDBRANCH  15  21
ENDBRANCH   4  15
BRANCH   1  26
ATOM     26  C1  <0> d          -4.297   0.739  -0.015  0.00  0.00    -0.055 C 
ATOM     27  H3  <0> d          -4.665   0.854  -1.034  0.00  0.00     0.033 H 
ATOM     28  H4  <0> d          -4.495  -0.276   0.331  0.00  0.00     0.033 H 
ATOM     29  H5  <0> d          -4.804   1.450   0.637  0.00  0.00     0.033 H 
ENDBRANCH   1  26
TORSDOF 5
