REMARK  1 active torsions:
REMARK  status: ('A' for Active; 'I' for Inactive)
REMARK    1  A    between atoms: C5_5  and  N1_8 
ROOT
ATOM      1  C1  <0> d           1.168   2.050   0.002  0.00  0.00    -0.020 A 
ATOM      2  C2  <0> d           1.148   3.450   0.010  0.00  0.00     0.086 A 
ATOM      3  C3  <0> d          -0.076   4.128   0.025  0.00  0.00     0.139 A 
ATOM      4  C4  <0> d          -1.258   3.416   0.032  0.00  0.00    -0.016 A 
ATOM      5  C5  <0> d          -1.234   2.026   0.019  0.00  0.00     0.067 A 
ATOM      6  C6  <0> d          -0.016   1.347   0.009  0.00  0.00     0.144 A 
ATOM      7  F1  <0> d           0.002  -0.004   0.002  0.00  0.00    -0.204 F 
ATOM      8  F2  <0> d          -0.101   5.479   0.032  0.00  0.00    -0.204 F 
ATOM      9  C7  <0> d           2.377   4.185   0.002  0.00  0.00     0.102 C 
ATOM     10  N2  <0> d           3.352   4.768  -0.004  0.00  0.00    -0.191 NA
ATOM     11  H1  <0> d           2.110   1.523  -0.009  0.00  0.00     0.090 H 
ATOM     12  H2  <0> d          -2.203   3.938   0.044  0.00  0.00     0.091 H 
ENDROOT
BRANCH   5  13
ATOM     13  N1  <0> d          -2.429   1.310   0.020  0.00  0.00    -0.397 N 
ATOM     14  H3  <0> d          -2.413   0.341   0.015  0.00  0.00     0.156 HD
ATOM     15  H4  <0> d          -3.277   1.782   0.027  0.00  0.00     0.156 HD
ENDBRANCH   5  13
TORSDOF 1
