REMARK  3 active torsions:
REMARK  status: ('A' for Active; 'I' for Inactive)
REMARK    1  A    between atoms: C1_1  and  C2_2 
REMARK    2  A    between atoms: C4_4  and  O1_9 
REMARK    3  A    between atoms: O1_9  and  C8_10 
ROOT
ATOM      1  C2  <0> d          -3.999   1.183   2.632  0.00  0.00    -0.038 A 
ATOM      2  C3  <0> d          -2.684   1.574   2.467  0.00  0.00    -0.043 A 
ATOM      3  C4  <0> d          -1.975   1.163   1.348  0.00  0.00     0.068 A 
ATOM      4  C5  <0> d          -2.589   0.364   0.395  0.00  0.00    -0.049 A 
ATOM      5  C6  <0> d          -3.902  -0.029   0.566  0.00  0.00    -0.059 A 
ATOM      6  C7  <0> d          -4.609   0.383   1.683  0.00  0.00     0.040 A 
ATOM      7 Cl1  <0> d          -6.261  -0.107   1.893  0.00  0.00    -0.084 Cl
ATOM      8  H4  <0> d          -2.209   2.200   3.208  0.00  0.00     0.088 H 
ATOM      9  H5  <0> d          -2.040   0.047  -0.479  0.00  0.00     0.087 H 
ATOM     10  H6  <0> d          -4.380  -0.654  -0.174  0.00  0.00     0.086 H 
ENDROOT
BRANCH   3  11
ATOM     11  O1  <0> d          -0.682   1.547   1.184  0.00  0.00    -0.356 OA
BRANCH  11  12
ATOM     12  C8  <0> d          -0.013   1.086   0.008  0.00  0.00     0.010 C 
ATOM     13  H7  <0> d           0.002  -0.004   0.002  0.00  0.00     0.066 H 
ATOM     14  H8  <0> d           1.010   1.463   0.000  0.00  0.00     0.066 H 
ATOM     15  H9  <0> d          -0.540   1.447  -0.875  0.00  0.00     0.066 H 
ENDBRANCH  11  12
ENDBRANCH   3  11
BRANCH   1  16
ATOM     16  C1  <0> d          -4.770   1.630   3.848  0.00  0.00    -0.050 C 
ATOM     17  H1  <0> d          -5.269   2.575   3.635  0.00  0.00     0.033 H 
ATOM     18  H2  <0> d          -5.515   0.876   4.103  0.00  0.00     0.033 H 
ATOM     19  H3  <0> d          -4.085   1.761   4.685  0.00  0.00     0.033 H 
ENDBRANCH   1  16
TORSDOF 3
