REMARK  2 active torsions:
REMARK  status: ('A' for Active; 'I' for Inactive)
REMARK    1  A    between atoms: C1_1  and  C2_2 
REMARK    2  A    between atoms: C7_7  and  C8_8 
ROOT
ATOM      1  C2  <0> d           0.002  -0.004   0.002  0.00  0.00    -0.048 A 
ATOM      2  C3  <0> d           0.006  -0.689  -1.196  0.00  0.00    -0.076 A 
ATOM      3  C4  <0> d           0.024  -2.072  -1.205  0.00  0.00    -0.082 A 
ATOM      4  C5  <0> d           0.039  -2.777  -0.015  0.00  0.00    -0.082 A 
ATOM      5  C6  <0> d           0.036  -2.104   1.189  0.00  0.00    -0.069 A 
ATOM      6  C7  <0> d           0.023  -0.709   1.205  0.00  0.00     0.021 A 
ATOM      7  H4  <0> d          -0.006  -0.144  -2.128  0.00  0.00     0.084 H 
ATOM      8  H5  <0> d           0.026  -2.603  -2.146  0.00  0.00     0.083 H 
ATOM      9  H6  <0> d           0.052  -3.857  -0.029  0.00  0.00     0.083 H 
ATOM     10  H7  <0> d           0.047  -2.655   2.118  0.00  0.00     0.085 H 
ENDROOT
BRANCH   6  11
ATOM     11  C8  <0> d           0.026   0.019   2.494  0.00  0.00     0.207 A 
ATOM     12  N1  <0> d           0.045  -0.518   3.714  0.00  0.00    -0.106 NA
ATOM     13  N2  <0> d           0.040   0.451   4.564  0.00  0.00    -0.021 NA
ATOM     14  N3  <0> d           0.019   1.571   3.931  0.00  0.00    -0.021 NA
ATOM     15  N4  <0> d           0.016   1.343   2.662  0.00  0.00    -0.106 NA
ENDBRANCH   6  11
BRANCH   1  16
ATOM     16  C1  <0> d          -0.018   1.503   0.010  0.00  0.00    -0.050 C 
ATOM     17  H1  <0> d           1.004   1.880   0.003  0.00  0.00     0.033 H 
ATOM     18  H2  <0> d          -0.545   1.864  -0.873  0.00  0.00     0.033 H 
ATOM     19  H3  <0> d          -0.529   1.854   0.907  0.00  0.00     0.033 H 
ENDBRANCH   1  16
TORSDOF 2
