REMARK  4 active torsions:
REMARK  status: ('A' for Active; 'I' for Inactive)
REMARK    1  A    between atoms: C1_1  and  C2_2 
REMARK    2  A    between atoms: C2_2  and  C3_4 
REMARK    3  A    between atoms: C2_2  and  O1_12 
REMARK    4  A    between atoms: C4_5  and  C5_6 
ROOT
ATOM      1  C3  <0> d          -0.016   1.322   0.009  0.00  0.00    -0.075 C 
ATOM      2  C4  <0> d           0.002  -0.004   0.002  0.00  0.00    -0.074 C 
ATOM      3  H5  <0> d           0.912   1.874   0.003  0.00  0.00     0.080 H 
ATOM      4  H6  <0> d          -0.926  -0.557   0.008  0.00  0.00     0.084 H 
ENDROOT
BRANCH   2   5
ATOM      5  C5  <0> d           1.292  -0.726  -0.014  0.00  0.00    -0.034 A 
ATOM      6  C9  <0> d           1.333  -2.124  -0.022  0.00  0.00    -0.056 A 
ATOM      7  C8  <0> d           2.559  -2.757  -0.038  0.00  0.00     0.003 A 
ATOM      8  H10 <0> d           0.419  -2.700  -0.016  0.00  0.00     0.086 H 
ATOM      9  N1  <0> d           3.680  -2.062  -0.045  0.00  0.00    -0.273 NA
ATOM     10  H9  <0> d           2.602  -3.836  -0.044  0.00  0.00     0.114 H 
ATOM     11  C7  <0> d           3.686  -0.742  -0.038  0.00  0.00     0.003 A 
ATOM     12  C6  <0> d           2.506  -0.029  -0.028  0.00  0.00    -0.056 A 
ATOM     13  H8  <0> d           4.628  -0.214  -0.045  0.00  0.00     0.114 H 
ATOM     14  H7  <0> d           2.518   1.051  -0.027  0.00  0.00     0.086 H 
ENDBRANCH   2   5
BRANCH   1  15
ATOM     15  C2  <0> d          -1.331   2.057   0.019  0.00  0.00     0.048 C 
ATOM     16  H1  <0> d          -1.441   2.619  -0.908  0.00  0.00     0.088 H 
BRANCH  15  17
ATOM     17  C1  <0> d          -1.367   3.022   1.207  0.00  0.00    -0.049 C 
ATOM     18  H2  <0> d          -0.550   3.739   1.117  0.00  0.00     0.031 H 
ATOM     19  H3  <0> d          -2.318   3.554   1.214  0.00  0.00     0.031 H 
ATOM     20  H4  <0> d          -1.257   2.461   2.134  0.00  0.00     0.031 H 
ENDBRANCH  15  17
BRANCH  15  21
ATOM     21  O1  <0> d          -2.401   1.118   0.137  0.00  0.00    -0.392 OA
ATOM     22  H11 <0> d          -2.368   0.582   0.941  0.00  0.00     0.210 HD
ENDBRANCH  15  21
ENDBRANCH   1  15
TORSDOF 4
