REMARK  5 active torsions:
REMARK  status: ('A' for Active; 'I' for Inactive)
REMARK    1  A    between atoms: C1_1  and  C2_2 
REMARK    2  A    between atoms: C2_2  and  O1_3 
REMARK    3  A    between atoms: O1_3  and  C3_4 
REMARK    4  A    between atoms: C6_7  and  N1_10 
REMARK    5  A    between atoms: N1_10  and  C9_11 
ROOT
ATOM      1  C3  <0> d           1.175   2.087   0.002  0.00  0.00     0.068 A 
ATOM      2  C4  <0> d          -0.017   1.377   0.010  0.00  0.00    -0.049 A 
ATOM      3  C5  <0> d           0.002  -0.004   0.002  0.00  0.00    -0.055 A 
ATOM      4  C6  <0> d           1.214  -0.681  -0.013  0.00  0.00     0.027 A 
ATOM      5  C7  <0> d           2.406   0.030  -0.021  0.00  0.00    -0.055 A 
ATOM      6  C8  <0> d           2.386   1.411  -0.013  0.00  0.00    -0.049 A 
ATOM      7  H6  <0> d          -0.959   1.904   0.017  0.00  0.00     0.087 H 
ATOM      8  H7  <0> d          -0.926  -0.557   0.008  0.00  0.00     0.087 H 
ATOM      9  H8  <0> d           3.349  -0.496  -0.032  0.00  0.00     0.087 H 
ATOM     10  H9  <0> d           3.313   1.965  -0.019  0.00  0.00     0.087 H 
ENDROOT
BRANCH   1  11
ATOM     11  O1  <0> d           1.155   3.447   0.009  0.00  0.00    -0.352 OA
BRANCH  11  12
ATOM     12  C2  <0> d           2.419   4.114   0.001  0.00  0.00     0.023 C 
ATOM     13  H4  <0> d           2.977   3.831  -0.904  0.00  0.00     0.074 H 
ATOM     14  H5  <0> d           2.994   3.822   0.892  0.00  0.00     0.074 H 
BRANCH  12  15
ATOM     15  C1  <0> d           2.197   5.628   0.010  0.00  0.00    -0.056 C 
ATOM     16  H1  <0> d           3.170   6.141   0.004  0.00  0.00     0.030 H 
ATOM     17  H2  <0> d           1.639   5.911   0.915  0.00  0.00     0.030 H 
ATOM     18  H3  <0> d           1.623   5.920  -0.881  0.00  0.00     0.030 H 
ENDBRANCH  12  15
ENDBRANCH  11  12
ENDBRANCH   1  11
BRANCH   4  19
ATOM     19  N1  <0> d           1.234  -2.081  -0.021  0.00  0.00    -0.394 N 
ATOM     20  H10 <0> d           0.289  -2.644  -0.014  0.00  0.00     0.159 HD
BRANCH  19  21
ATOM     21  C9  <0> d           2.513  -2.795  -0.037  0.00  0.00    -0.021 C 
ATOM     22  H11 <0> d           2.327  -3.879  -0.040  0.00  0.00     0.056 H 
ATOM     23  H12 <0> d           3.095  -2.526   0.857  0.00  0.00     0.056 H 
ATOM     24  H13 <0> d           3.077  -2.517  -0.939  0.00  0.00     0.056 H 
ENDBRANCH  19  21
ENDBRANCH   4  19
TORSDOF 5
