REMARK  4 active torsions:
REMARK  status: ('A' for Active; 'I' for Inactive)
REMARK    1  A    between atoms: C1_1  and  C2_2 
REMARK    2  A    between atoms: C5_6  and  C7_9 
REMARK    3  A    between atoms: C5_6  and  C8_10 
REMARK    4  A    between atoms: C8_10  and  O2_11 
ROOT
ATOM      1  C2  <0> d          -2.254   1.038  -3.632  0.00  0.00    -0.037 C 
ATOM      2  H1  <0> d          -2.832   1.407  -4.480  0.00  0.00     0.042 H 
ATOM      3  C3  <0> d          -0.817   1.559  -3.726  0.00  0.00    -0.057 C 
ATOM      4  C4  <0> d          -0.037   1.099  -2.491  0.00  0.00    -0.034 C 
ATOM      5  C5  <0> d          -0.753   1.593  -1.232  0.00  0.00     0.078 C 
ATOM      6  O1  <0> d          -2.093   1.098  -1.222  0.00  0.00    -0.378 OA
ATOM      7  C6  <0> d          -2.885   1.535  -2.329  0.00  0.00     0.024 C 
ATOM      8  H5  <0> d          -0.344   1.163  -4.625  0.00  0.00     0.033 H 
ATOM      9  H6  <0> d          -0.826   2.648  -3.767  0.00  0.00     0.033 H 
ATOM     10  H7  <0> d           0.972   1.511  -2.522  0.00  0.00     0.037 H 
ATOM     11  H8  <0> d           0.015   0.010  -2.478  0.00  0.00     0.037 H 
ATOM     12  H9  <0> d          -3.893   1.132  -2.236  0.00  0.00     0.074 H 
ATOM     13  H10 <0> d          -2.928   2.624  -2.337  0.00  0.00     0.074 H 
ENDROOT
BRANCH   5  14
ATOM     14  C7  <0> d          -0.774   3.123  -1.223  0.00  0.00    -0.046 C 
ATOM     15  H11 <0> d           0.249   3.500  -1.231  0.00  0.00     0.031 H 
ATOM     16  H12 <0> d          -1.301   3.483  -2.106  0.00  0.00     0.031 H 
ATOM     17  H13 <0> d          -1.284   3.474  -0.327  0.00  0.00     0.031 H 
ENDBRANCH   5  14
BRANCH   5  18
ATOM     18  C8  <0> d          -0.013   1.086   0.008  0.00  0.00     0.045 C 
ATOM     19  H14 <0> d           0.002  -0.004   0.002  0.00  0.00     0.078 H 
ATOM     20  H15 <0> d           1.010   1.463   0.000  0.00  0.00     0.078 H 
BRANCH  18  21
ATOM     21  O2  <0> d          -0.682   1.547   1.184  0.00  0.00    -0.398 OA
ATOM     22  H16 <0> d          -0.266   1.262   2.009  0.00  0.00     0.209 HD
ENDBRANCH  18  21
ENDBRANCH   5  18
BRANCH   1  23
ATOM     23  C1  <0> d          -2.246  -0.492  -3.646  0.00  0.00    -0.071 C 
ATOM     24  H2  <0> d          -3.268  -0.862  -3.573  0.00  0.00     0.028 H 
ATOM     25  H3  <0> d          -1.797  -0.845  -4.574  0.00  0.00     0.028 H 
ATOM     26  H4  <0> d          -1.665  -0.859  -2.799  0.00  0.00     0.028 H 
ENDBRANCH   1  23
TORSDOF 4
