REMARK  5 active torsions:
REMARK  status: ('A' for Active; 'I' for Inactive)
REMARK    1  A    between atoms: C1_1  and  C2_2 
REMARK    2  A    between atoms: C4_4  and  C10_11 
REMARK    3  A    between atoms: C6_6  and  N1_8 
REMARK    4  A    between atoms: N1_8  and  C8_9 
REMARK    5  A    between atoms: N1_8  and  C9_10 
ROOT
ATOM      1  C2  <0> d          -0.017   1.379   0.027  0.00  0.00    -0.059 A 
ATOM      2  C3  <0> d           0.002  -0.004   0.005  0.00  0.00    -0.071 A 
ATOM      3  C4  <0> d           1.207  -0.682  -0.024  0.00  0.00    -0.059 A 
ATOM      4  C5  <0> d           2.396   0.020  -0.033  0.00  0.00    -0.052 A 
ATOM      5  C6  <0> d           2.381   1.409  -0.012  0.00  0.00     0.030 A 
ATOM      6  C7  <0> d           1.169   2.087   0.018  0.00  0.00    -0.052 A 
ATOM      7  H4  <0> d          -0.927  -0.555   0.012  0.00  0.00     0.085 H 
ATOM      8  H5  <0> d           3.337  -0.510  -0.057  0.00  0.00     0.087 H 
ATOM      9  H6  <0> d           1.154   3.167   0.035  0.00  0.00     0.087 H 
ENDROOT
BRANCH   5  10
ATOM     10  N1  <0> d           3.582   2.122  -0.021  0.00  0.00    -0.390 N 
BRANCH  10  11
ATOM     11  C8  <0> d           4.858   1.409   0.074  0.00  0.00    -0.019 C 
ATOM     12  H7  <0> d           4.676   0.334   0.053  0.00  0.00     0.056 H 
ATOM     13  H8  <0> d           5.493   1.686  -0.767  0.00  0.00     0.056 H 
ATOM     14  H9  <0> d           5.355   1.675   1.007  0.00  0.00     0.056 H 
ENDBRANCH  10  11
BRANCH  10  15
ATOM     15  C9  <0> d           3.566   3.583  -0.125  0.00  0.00    -0.019 C 
ATOM     16  H10 <0> d           3.526   4.018   0.873  0.00  0.00     0.056 H 
ATOM     17  H11 <0> d           4.469   3.921  -0.633  0.00  0.00     0.056 H 
ATOM     18  H12 <0> d           2.690   3.897  -0.693  0.00  0.00     0.056 H 
ENDBRANCH  10  15
ENDBRANCH   5  10
BRANCH   3  19
ATOM     19  C10 <0> d           1.222  -2.189  -0.046  0.00  0.00    -0.051 C 
ATOM     20  H13 <0> d           1.209  -2.537  -1.079  0.00  0.00     0.033 H 
ATOM     21  H14 <0> d           2.124  -2.550   0.447  0.00  0.00     0.033 H 
ATOM     22  H15 <0> d           0.344  -2.569   0.476  0.00  0.00     0.033 H 
ENDBRANCH   3  19
BRANCH   1  23
ATOM     23  C1  <0> d          -1.332   2.114   0.053  0.00  0.00    -0.051 C 
ATOM     24  H1  <0> d          -1.637   2.275   1.087  0.00  0.00     0.033 H 
ATOM     25  H2  <0> d          -1.221   3.075  -0.447  0.00  0.00     0.033 H 
ATOM     26  H3  <0> d          -2.089   1.522  -0.461  0.00  0.00     0.033 H 
ENDBRANCH   1  23
TORSDOF 5
