REMARK  3 active torsions:
REMARK  status: ('A' for Active; 'I' for Inactive)
REMARK    1  A    between atoms: C1_1  and  C2_2 
REMARK    2  A    between atoms: C2_2  and  C3_3 
REMARK    3  A    between atoms: C4_4  and  O3_10 
ROOT
ATOM      1  C3  <0> d          -0.016   1.347   0.009  0.00  0.00     0.089 A 
ATOM      2  C4  <0> d           0.002  -0.004   0.002  0.00  0.00     0.146 A 
ATOM      3  C5  <0> d           1.257  -0.674  -0.013  0.00  0.00     0.209 A 
ATOM      4  O1  <0> d           1.317  -1.894  -0.020  0.00  0.00    -0.285 OA
ATOM      5  C6  <0> d           2.435   0.113  -0.021  0.00  0.00    -0.010 A 
ATOM      6  C7  <0> d           2.324   1.457  -0.012  0.00  0.00     0.023 A 
ATOM      7  O2  <0> d           1.125   2.050   0.002  0.00  0.00    -0.324 OA
ATOM      8  H6  <0> d           3.408  -0.356  -0.033  0.00  0.00     0.092 H 
ATOM      9  H7  <0> d           3.217   2.064  -0.017  0.00  0.00     0.123 H 
ENDROOT
BRANCH   1  10
ATOM     10  C2  <0> d          -1.337   2.073   0.020  0.00  0.00    -0.021 C 
ATOM     11  H4  <0> d          -1.229   3.030  -0.489  0.00  0.00     0.042 H 
ATOM     12  H5  <0> d          -2.086   1.470  -0.494  0.00  0.00     0.042 H 
BRANCH  10  13
ATOM     13  C1  <0> d          -1.777   2.311   1.466  0.00  0.00    -0.071 C 
ATOM     14  H1  <0> d          -1.885   1.353   1.975  0.00  0.00     0.028 H 
ATOM     15  H2  <0> d          -1.028   2.913   1.979  0.00  0.00     0.028 H 
ATOM     16  H3  <0> d          -2.732   2.835   1.473  0.00  0.00     0.028 H 
ENDBRANCH  10  13
ENDBRANCH   1  10
BRANCH   2  17
ATOM     17  O3  <0> d          -1.160  -0.712   0.010  0.00  0.00    -0.355 OA
ATOM     18  H8  <0> d          -1.505  -0.912  -0.871  0.00  0.00     0.218 HD
ENDBRANCH   2  17
TORSDOF 3
