REMARK  2 active torsions:
REMARK  status: ('A' for Active; 'I' for Inactive)
REMARK    1  A    between atoms: C1_1  and  C2_2 
REMARK    2  A    between atoms: C2_2  and  C3_3 
ROOT
ATOM      1  C3  <0> d           0.731  -0.503   1.223  0.00  0.00     0.049 A 
ATOM      2  C4  <0> d           0.030  -0.839   2.332  0.00  0.00     0.179 A 
ATOM      3  C5  <0> d           0.727  -1.308   3.474  0.00  0.00     0.211 A 
ATOM      4  C6  <0> d           2.135  -1.408   3.415  0.00  0.00    -0.017 A 
ATOM      5  C7  <0> d           2.776  -1.057   2.278  0.00  0.00    -0.019 A 
ATOM      6  N1  <0> d           2.085  -0.617   1.199  0.00  0.00    -0.367 N 
ATOM      7  O1  <0> d           0.122  -1.618   4.491  0.00  0.00    -0.285 OA
ATOM      8  O2  <0> d          -1.326  -0.728   2.350  0.00  0.00    -0.186 OA
ATOM      9  H6  <0> d           2.694  -1.761   4.269  0.00  0.00     0.091 H 
ATOM     10  H7  <0> d           3.853  -1.131   2.227  0.00  0.00     0.111 H 
ATOM     11  H8  <0> d           2.567  -0.375   0.393  0.00  0.00     0.165 HD
ENDROOT
BRANCH   1  12
ATOM     12  C2  <0> d           0.002  -0.004   0.002  0.00  0.00    -0.027 C 
ATOM     13  H4  <0> d          -1.020  -0.381   0.010  0.00  0.00     0.041 H 
ATOM     14  H5  <0> d           0.512  -0.356  -0.895  0.00  0.00     0.041 H 
BRANCH  12  15
ATOM     15  C1  <0> d          -0.019   1.526   0.010  0.00  0.00    -0.071 C 
ATOM     16  H1  <0> d           1.004   1.903   0.003  0.00  0.00     0.028 H 
ATOM     17  H2  <0> d          -0.546   1.887  -0.873  0.00  0.00     0.028 H 
ATOM     18  H3  <0> d          -0.529   1.877   0.907  0.00  0.00     0.028 H 
ENDBRANCH  12  15
ENDBRANCH   1  12
TORSDOF 2
