REMARK  1 active torsions:
REMARK  status: ('A' for Active; 'I' for Inactive)
REMARK    1  A    between atoms: C1_1  and  C2_2 
ROOT
ATOM      1  C2  <0> d          -1.304   5.957  -0.242  0.00  0.00     0.006 C 
ATOM      2  H1  <0> d          -1.521   5.914  -1.309  0.00  0.00     0.071 H 
ATOM      3  C3  <0> d          -2.427   5.268   0.545  0.00  0.00    -0.043 C 
ATOM      4  C4  <0> d          -2.580   3.835   0.036  0.00  0.00    -0.037 C 
ATOM      5  C5  <0> d          -1.247   3.133   0.029  0.00  0.00    -0.032 A 
ATOM      6  C6  <0> d          -1.219   1.748   0.017  0.00  0.00    -0.075 A 
ATOM      7  C7  <0> d          -0.013   1.076   0.008  0.00  0.00    -0.082 A 
ATOM      8  C8  <0> d           1.177   1.782   0.000  0.00  0.00    -0.081 A 
ATOM      9  C9  <0> d           1.158   3.162   0.009  0.00  0.00    -0.057 A 
ATOM     10  C10 <0> d          -0.056   3.841   0.025  0.00  0.00     0.034 A 
ATOM     11  N1  <0> d          -0.053   5.240   0.042  0.00  0.00    -0.385 N 
ATOM     12  H5  <0> d          -3.362   5.809   0.397  0.00  0.00     0.036 H 
ATOM     13  H6  <0> d          -2.175   5.254   1.605  0.00  0.00     0.036 H 
ATOM     14  H7  <0> d          -2.981   3.853  -0.977  0.00  0.00     0.040 H 
ATOM     15  H8  <0> d          -3.268   3.294   0.686  0.00  0.00     0.040 H 
ATOM     16  H9  <0> d          -2.145   1.192   0.019  0.00  0.00     0.084 H 
ATOM     17  H10 <0> d           0.002  -0.004   0.002  0.00  0.00     0.083 H 
ATOM     18  H11 <0> d           2.119   1.254  -0.012  0.00  0.00     0.083 H 
ATOM     19  H12 <0> d           2.086   3.715   0.004  0.00  0.00     0.086 H 
ATOM     20  H13 <0> d           0.762   5.730   0.237  0.00  0.00     0.160 HD
ENDROOT
BRANCH   1  21
ATOM     21  C1  <0> d          -1.179   7.415   0.204  0.00  0.00    -0.057 C 
ATOM     22  H2  <0> d          -0.948   7.451   1.268  0.00  0.00     0.030 H 
ATOM     23  H3  <0> d          -0.380   7.899  -0.358  0.00  0.00     0.030 H 
ATOM     24  H4  <0> d          -2.119   7.934   0.018  0.00  0.00     0.030 H 
ENDBRANCH   1  21
TORSDOF 1
