REMARK  3 active torsions:
REMARK  status: ('A' for Active; 'I' for Inactive)
REMARK    1  A    between atoms: C1_1  and  C2_2 
REMARK    2  A    between atoms: C2_2  and  C7_11 
REMARK    3  A    between atoms: C4_4  and  C6_9 
ROOT
ATOM      1  C2  <0> d          -0.829   1.632  -1.185  0.00  0.00     0.065 C 
ATOM      2  C3  <0> d          -0.013   1.086   0.008  0.00  0.00    -0.015 C 
ATOM      3  C4  <0> d          -0.806   1.619   1.222  0.00  0.00     0.117 C 
ATOM      4  H1  <0> d          -1.397   0.820   1.669  0.00  0.00     0.072 H 
ATOM      5  C5  <0> d          -1.715   2.689   0.646  0.00  0.00     0.274 C 
ATOM      6  O1  <0> d          -2.530   3.320   1.276  0.00  0.00    -0.264 OA
ATOM      7  O2  <0> d          -1.476   2.831  -0.665  0.00  0.00    -0.310 OA
ATOM      8  H5  <0> d           0.002  -0.004   0.002  0.00  0.00     0.039 H 
ATOM      9  H6  <0> d           1.001   1.486   0.001  0.00  0.00     0.039 H 
ENDROOT
BRANCH   1  10
ATOM     10  C1  <0> d           0.098   1.987  -2.349  0.00  0.00    -0.047 C 
ATOM     11  H2  <0> d           0.639   1.096  -2.668  0.00  0.00     0.031 H 
ATOM     12  H3  <0> d          -0.493   2.370  -3.181  0.00  0.00     0.031 H 
ATOM     13  H4  <0> d           0.809   2.748  -2.028  0.00  0.00     0.031 H 
ENDBRANCH   1  10
BRANCH   1  14
ATOM     14  C7  <0> d          -1.875   0.608  -1.630  0.00  0.00    -0.047 C 
ATOM     15  H7  <0> d          -2.553   0.398  -0.803  0.00  0.00     0.031 H 
ATOM     16  H8  <0> d          -2.441   1.009  -2.471  0.00  0.00     0.031 H 
ATOM     17  H9  <0> d          -1.377  -0.313  -1.934  0.00  0.00     0.031 H 
ENDBRANCH   1  14
BRANCH   3  18
ATOM     18  C6  <0> d           0.132   2.213   2.241  0.00  0.00     0.187 C 
ATOM     19  O3  <0> d           1.322   2.220   2.035  0.00  0.00    -0.647 OA
ATOM     20  O4  <0> d          -0.356   2.735   3.377  0.00  0.00    -0.647 OA
ENDBRANCH   3  18
TORSDOF 3
