REMARK  1 active torsions:
REMARK  status: ('A' for Active; 'I' for Inactive)
REMARK    1  A    between atoms: C3_3  and  N1_10 
ROOT
ATOM      1  C1  <0> d           3.437   3.585  -0.013  0.00  0.00    -0.080 A 
ATOM      2  C2  <0> d           3.631   2.211  -0.021  0.00  0.00    -0.057 A 
ATOM      3  C3  <0> d           2.567   1.338  -0.015  0.00  0.00     0.037 A 
ATOM      4  C4  <0> d           1.233   1.828   0.000  0.00  0.00     0.008 A 
ATOM      5  C5  <0> d          -0.013   1.076   0.008  0.00  0.00    -0.063 A 
ATOM      6  C6  <0> d          -1.179   1.737   0.017  0.00  0.00    -0.043 A 
ATOM      7  S1  <0> d          -0.685   3.450   0.026  0.00  0.00    -0.101 SA
ATOM      8  C7  <0> d           1.076   3.229   0.009  0.00  0.00     0.017 A 
ATOM      9  C8  <0> d           2.153   4.091   0.003  0.00  0.00    -0.066 A 
ATOM     10  H1  <0> d           4.285   4.254  -0.017  0.00  0.00     0.083 H 
ATOM     11  H2  <0> d           4.638   1.818  -0.033  0.00  0.00     0.086 H 
ATOM     12  H3  <0> d           0.002  -0.004   0.002  0.00  0.00     0.085 H 
ATOM     13  H4  <0> d          -2.179   1.329   0.019  0.00  0.00     0.095 H 
ATOM     14  H5  <0> d           1.992   5.159   0.009  0.00  0.00     0.085 H 
ENDROOT
BRANCH   3  15
ATOM     15  N1  <0> d           2.799  -0.038  -0.024  0.00  0.00    -0.398 N 
ATOM     16  H6  <0> d           2.052  -0.656  -0.019  0.00  0.00     0.156 HD
ATOM     17  H7  <0> d           3.708  -0.377  -0.034  0.00  0.00     0.156 HD
ENDBRANCH   3  15
TORSDOF 1
