REMARK  1 active torsions:
REMARK  status: ('A' for Active; 'I' for Inactive)
REMARK    1  A    between atoms: C1_1  and  C2_2 
ROOT
ATOM      1  C2  <0> d           1.168   2.064   0.002  0.00  0.00     0.070 A 
ATOM      2  C3  <0> d          -0.016   1.347   0.009  0.00  0.00     0.140 A 
ATOM      3  C4  <0> d          -1.223   2.034   0.019  0.00  0.00    -0.041 A 
ATOM      4  C5  <0> d          -1.193   3.419   0.032  0.00  0.00    -0.041 A 
ATOM      5  C6  <0> d           0.029   4.068   0.024  0.00  0.00     0.126 A 
ATOM      6  N1  <0> d           1.157   3.383   0.010  0.00  0.00    -0.239 NA
ATOM      7 Cl1  <0> d           0.080   5.803   0.034  0.00  0.00    -0.062 Cl
ATOM      8  F1  <0> d           0.002  -0.004   0.002  0.00  0.00    -0.204 F 
ATOM      9  H4  <0> d          -2.163   1.501   0.020  0.00  0.00     0.088 H 
ATOM     10  H5  <0> d          -2.112   3.986   0.045  0.00  0.00     0.088 H 
ENDROOT
BRANCH   1  11
ATOM     11  C1  <0> d           2.483   1.330  -0.015  0.00  0.00    -0.033 C 
ATOM     12  H1  <0> d           2.791   1.158  -1.046  0.00  0.00     0.035 H 
ATOM     13  H2  <0> d           3.239   1.927   0.495  0.00  0.00     0.035 H 
ATOM     14  H3  <0> d           2.372   0.373   0.495  0.00  0.00     0.035 H 
ENDBRANCH   1  11
TORSDOF 1
