REMARK  3 active torsions:
REMARK  status: ('A' for Active; 'I' for Inactive)
REMARK    1  A    between atoms: C1_1  and  C2_2 
REMARK    2  A    between atoms: C3_3  and  C6_11 
REMARK    3  A    between atoms: C4_7  and  C5_8 
ROOT
ATOM      1  C2  <0> d           0.002  -0.004   0.002  0.00  0.00    -0.001 A 
ATOM      2  C3  <0> d           0.009  -0.844  -1.113  0.00  0.00     0.059 A 
ATOM      3  N1  <0> d           0.027  -2.081  -0.684  0.00  0.00    -0.179 NA
ATOM      4  N2  <0> d           0.034  -2.123   0.599  0.00  0.00    -0.271 N 
ATOM      5  H1  <0> d           0.047  -2.934   1.132  0.00  0.00     0.189 HD
ATOM      6  C4  <0> d           0.025  -0.851   1.100  0.00  0.00     0.134 A 
ENDROOT
BRANCH   1   7
ATOM      7  C1  <0> d          -0.018   1.503   0.010  0.00  0.00    -0.047 C 
ATOM      8  H2  <0> d           1.004   1.880   0.003  0.00  0.00     0.033 H 
ATOM      9  H3  <0> d          -0.545   1.864  -0.873  0.00  0.00     0.033 H 
ATOM     10  H4  <0> d          -0.529   1.854   0.907  0.00  0.00     0.033 H 
ENDBRANCH   1   7
BRANCH   6  11
ATOM     11  C5  <0> d           0.033  -0.460   2.514  0.00  0.00     0.229 C 
ATOM     12  O1  <0> d           0.053  -1.318   3.386  0.00  0.00    -0.643 OA
ATOM     13  O2  <0> d           0.020   0.725   2.822  0.00  0.00    -0.643 OA
ENDBRANCH   6  11
BRANCH   2  14
ATOM     14  C6  <0> d          -0.004  -0.405  -2.554  0.00  0.00    -0.033 C 
ATOM     15  H5  <0> d           1.020  -0.285  -2.906  0.00  0.00     0.035 H 
ATOM     16  H6  <0> d          -0.511  -1.158  -3.159  0.00  0.00     0.035 H 
ATOM     17  H7  <0> d          -0.532   0.545  -2.640  0.00  0.00     0.035 H 
ENDBRANCH   2  14
TORSDOF 3
