REMARK  4 active torsions:
REMARK  status: ('A' for Active; 'I' for Inactive)
REMARK    1  A    between atoms: N2_4  and  C4_6 
REMARK    2  A    between atoms: C4_6  and  C5_7 
REMARK    3  A    between atoms: C5_7  and  C6_8 
REMARK    4  A    between atoms: C6_8  and  O1_9 
ROOT
ATOM      1  C4  <0> d          -0.019   1.526   0.010  0.00  0.00     0.018 C 
ATOM      2  H4  <0> d           1.004   1.903   0.003  0.00  0.00     0.067 H 
ATOM      3  H5  <0> d          -0.546   1.887  -0.873  0.00  0.00     0.067 H 
ENDROOT
BRANCH   1   4
ATOM      4  N2  <0> d          -0.704   1.998   1.216  0.00  0.00    -0.281 N 
ATOM      5  N1  <0> d          -1.998   1.645   1.619  0.00  0.00    -0.185 NA
ATOM      6  C2  <0> d          -2.259   2.263   2.743  0.00  0.00     0.023 A 
ATOM      7  C1  <0> d          -1.144   3.036   3.085  0.00  0.00    -0.048 A 
ATOM      8  H2  <0> d          -3.178   2.193   3.306  0.00  0.00     0.117 H 
ATOM      9  C3  <0> d          -0.203   2.855   2.130  0.00  0.00    -0.000 A 
ATOM     10  H1  <0> d          -1.051   3.666   3.958  0.00  0.00     0.087 H 
ATOM     11  H3  <0> d           0.774   3.313   2.104  0.00  0.00     0.114 H 
ENDBRANCH   1   4
BRANCH   1  12
ATOM     12  C5  <0> d           0.002  -0.004   0.002  0.00  0.00    -0.029 C 
ATOM     13  H6  <0> d           0.529  -0.365   0.885  0.00  0.00     0.038 H 
ATOM     14  H7  <0> d          -1.020  -0.381   0.010  0.00  0.00     0.038 H 
BRANCH  12  15
ATOM     15  C6  <0> d           0.718  -0.497  -1.257  0.00  0.00     0.018 C 
ATOM     16  H8  <0> d           0.191  -0.136  -2.140  0.00  0.00     0.074 H 
ATOM     17  H9  <0> d           1.741  -0.120  -1.264  0.00  0.00     0.074 H 
BRANCH  15  18
ATOM     18  O1  <0> d           0.738  -1.926  -1.265  0.00  0.00    -0.401 OA
ATOM     19  H10 <0> d           1.177  -2.309  -2.036  0.00  0.00     0.209 HD
ENDBRANCH  15  18
ENDBRANCH  12  15
ENDBRANCH   1  12
TORSDOF 4
