REMARK  3 active torsions:
REMARK  status: ('A' for Active; 'I' for Inactive)
REMARK    1  A    between atoms: C1_1  and  N1_2 
REMARK    2  A    between atoms: N1_2  and  C2_3 
REMARK       I    between atoms: N1_2  and  C5_7 
REMARK    3  A    between atoms: C2_3  and  C3_4 
REMARK       I    between atoms: C5_7  and  N3_9 
ROOT
ATOM      1  C3  <0> d           2.853   0.945  -1.463  0.00  0.00     0.029 C 
ATOM      2  C4  <0> d           4.138   0.226  -1.479  0.00  0.00     0.060 C 
ATOM      3  N2  <0> d           5.129  -0.328  -1.491  0.00  0.00    -0.197 NA
ATOM      4  H6  <0> d           2.097   0.348  -1.972  0.00  0.00     0.057 H 
ATOM      5  H7  <0> d           2.966   1.902  -1.972  0.00  0.00     0.057 H 
ENDROOT
BRANCH   1   6
ATOM      6  C2  <0> d           2.422   1.186  -0.015  0.00  0.00     0.010 C 
ATOM      7  H4  <0> d           3.178   1.783   0.495  0.00  0.00     0.065 H 
ATOM      8  H5  <0> d           2.309   0.229   0.495  0.00  0.00     0.065 H 
BRANCH   6   9
ATOM      9  N1  <0> d           1.143   1.901   0.001  0.00  0.00    -0.338 N 
ATOM     10  C5  <0> d          -0.014   1.212   0.009  0.00  0.00     0.315 C 
ATOM     11  O1  <0> d           0.002  -0.004   0.002  0.00  0.00    -0.247 OA
ATOM     12  N3  <0> d          -1.191   1.870   0.018  0.00  0.00    -0.352 N 
ATOM     13  H8  <0> d          -2.024   1.373   0.019  0.00  0.00     0.160 HD
ATOM     14  H9  <0> d          -1.204   2.840   0.023  0.00  0.00     0.160 HD
BRANCH   9  15
ATOM     15  C1  <0> d           1.124   3.366   0.009  0.00  0.00    -0.015 C 
ATOM     16  H1  <0> d           1.129   3.724   1.039  0.00  0.00     0.056 H 
ATOM     17  H2  <0> d           2.004   3.744  -0.511  0.00  0.00     0.056 H 
ATOM     18  H3  <0> d           0.224   3.720  -0.494  0.00  0.00     0.056 H 
ENDBRANCH   9  15
ENDBRANCH   6   9
ENDBRANCH   1   6
TORSDOF 3
