REMARK  1 active torsions:
REMARK  status: ('A' for Active; 'I' for Inactive)
REMARK    1  A    between atoms: C3_3  and  N3_11 
ROOT
ATOM      1  C1  <0> d          -1.003   5.913   0.041  0.00  0.00    -0.079 A 
ATOM      2  C2  <0> d          -2.249   5.294   0.049  0.00  0.00    -0.057 A 
ATOM      3  C3  <0> d          -2.353   3.918   0.043  0.00  0.00     0.038 A 
ATOM      4  C4  <0> d          -1.178   3.141   0.029  0.00  0.00     0.022 A 
ATOM      5  C5  <0> d          -1.210   1.736   0.017  0.00  0.00    -0.050 A 
ATOM      6  C6  <0> d          -0.013   1.076   0.008  0.00  0.00     0.025 A 
ATOM      7  N1  <0> d           1.131   1.747   0.001  0.00  0.00    -0.162 NA
ATOM      8  N2  <0> d           1.194   3.030   0.006  0.00  0.00    -0.150 NA
ATOM      9  C7  <0> d           0.088   3.781   0.021  0.00  0.00     0.091 A 
ATOM     10  C8  <0> d           0.147   5.184   0.026  0.00  0.00    -0.052 A 
ATOM     11  H1  <0> d          -0.947   6.991   0.045  0.00  0.00     0.083 H 
ATOM     12  H2  <0> d          -3.145   5.897   0.059  0.00  0.00     0.086 H 
ATOM     13  H3  <0> d          -2.147   1.198   0.019  0.00  0.00     0.087 H 
ATOM     14  H4  <0> d           0.002  -0.004   0.002  0.00  0.00     0.117 H 
ATOM     15  H5  <0> d           1.104   5.684   0.020  0.00  0.00     0.087 H 
ENDROOT
BRANCH   3  16
ATOM     16  N3  <0> d          -3.603   3.305   0.051  0.00  0.00    -0.398 N 
ATOM     17  H6  <0> d          -4.408   3.846   0.060  0.00  0.00     0.156 HD
ATOM     18  H7  <0> d          -3.668   2.338   0.047  0.00  0.00     0.156 HD
ENDBRANCH   3  16
TORSDOF 1
