REMARK  1 active torsions:
REMARK  status: ('A' for Active; 'I' for Inactive)
REMARK    1  A    between atoms: C5_6  and  C6_7 
REMARK       I    between atoms: C6_7  and  N2_9 
ROOT
ATOM      1  C1  <0> d          -1.251   3.780   0.033  0.00  0.00    -0.063 A 
ATOM      2  C2  <0> d          -1.236   2.397   0.021  0.00  0.00    -0.043 A 
ATOM      3  C3  <0> d          -0.021   1.732   0.012  0.00  0.00     0.125 A 
ATOM      4  N1  <0> d           1.119   2.397   0.004  0.00  0.00    -0.248 NA
ATOM      5  C4  <0> d           1.156   3.713   0.011  0.00  0.00     0.019 A 
ATOM      6  C5  <0> d          -0.025   4.457   0.025  0.00  0.00     0.049 A 
ATOM      7 Cl1  <0> d           0.002  -0.004   0.002  0.00  0.00    -0.062 Cl
ATOM      8  H1  <0> d          -2.184   4.324   0.044  0.00  0.00     0.085 H 
ATOM      9  H2  <0> d          -2.163   1.841   0.023  0.00  0.00     0.088 H 
ATOM     10  H3  <0> d           2.109   4.222   0.004  0.00  0.00     0.116 H 
ENDROOT
BRANCH   6  11
ATOM     11  C6  <0> d           0.018   5.934   0.033  0.00  0.00     0.250 C 
ATOM     12  O1  <0> d          -1.017   6.572   0.046  0.00  0.00    -0.268 OA
ATOM     13  N2  <0> d           1.204   6.574   0.025  0.00  0.00    -0.366 N 
ATOM     14  H4  <0> d           2.029   6.065   0.015  0.00  0.00     0.159 HD
ATOM     15  H5  <0> d           1.231   7.544   0.030  0.00  0.00     0.159 HD
ENDBRANCH   6  11
TORSDOF 1
