REMARK  2 active torsions:
REMARK  status: ('A' for Active; 'I' for Inactive)
REMARK    1  A    between atoms: C1_1  and  C2_2 
REMARK    2  A    between atoms: C8_12  and  C9_14 
ROOT
ATOM      1  C2  <0> d           1.315   2.639  -0.641  0.00  0.00    -0.053 C 
ATOM      2  H1  <0> d           1.723   3.399   0.026  0.00  0.00     0.040 H 
ATOM      3  C3  <0> d           1.345   1.252   0.040  0.00  0.00    -0.058 C 
ATOM      4  C4  <0> d          -0.150   0.817   0.114  0.00  0.00    -0.049 C 
ATOM      5  H2  <0> d          -0.329  -0.251   0.245  0.00  0.00     0.040 H 
ATOM      6  C5  <0> d          -0.704   1.456  -1.208  0.00  0.00    -0.056 C 
ATOM      7  C6  <0> d          -0.196   2.911  -0.914  0.00  0.00    -0.035 C 
ATOM      8  H3  <0> d          -0.414   3.661  -1.675  0.00  0.00     0.042 H 
ATOM      9  C7  <0> d          -0.807   3.173   0.496  0.00  0.00     0.037 C 
ATOM     10  H4  <0> d          -1.832   3.532   0.405  0.00  0.00     0.064 H 
ATOM     11  C8  <0> d          -0.776   1.751   1.194  0.00  0.00    -0.038 C 
ATOM     12  H5  <0> d          -1.781   1.415   1.450  0.00  0.00     0.042 H 
ATOM     13  C10 <0> d           0.014   4.143   1.239  0.00  0.00     0.064 C 
ATOM     14  N1  <0> d           0.647   4.892   1.813  0.00  0.00    -0.197 NA
ATOM     15  H9  <0> d           1.768   1.330   1.042  0.00  0.00     0.034 H 
ATOM     16  H10 <0> d           1.918   0.546  -0.561  0.00  0.00     0.034 H 
ATOM     17  H11 <0> d          -0.235   1.030  -2.095  0.00  0.00     0.034 H 
ATOM     18  H12 <0> d          -1.791   1.405  -1.262  0.00  0.00     0.034 H 
ENDROOT
BRANCH  11  19
ATOM     19  C9  <0> d           0.109   1.791   2.442  0.00  0.00    -0.071 C 
ATOM     20  H13 <0> d           1.048   2.292   2.205  0.00  0.00     0.028 H 
ATOM     21  H14 <0> d          -0.405   2.337   3.234  0.00  0.00     0.028 H 
ATOM     22  H15 <0> d           0.313   0.774   2.775  0.00  0.00     0.028 H 
ENDBRANCH  11  19
BRANCH   1  23
ATOM     23  C1  <0> d           2.100   2.606  -1.954  0.00  0.00    -0.072 C 
ATOM     24  H6  <0> d           1.671   1.854  -2.615  0.00  0.00     0.028 H 
ATOM     25  H7  <0> d           2.048   3.584  -2.433  0.00  0.00     0.028 H 
ATOM     26  H8  <0> d           3.142   2.358  -1.748  0.00  0.00     0.028 H 
ENDBRANCH   1  23
TORSDOF 2
