REMARK  1 active torsions:
REMARK  status: ('A' for Active; 'I' for Inactive)
REMARK    1  A    between atoms: C1_1  and  C2_2 
ROOT
ATOM      1  C2  <0> d           0.002  -0.004   0.002  0.00  0.00    -0.043 A 
ATOM      2  C3  <0> d           0.006  -0.696  -1.196  0.00  0.00    -0.053 A 
ATOM      3  C4  <0> d           0.025  -2.096  -1.155  0.00  0.00     0.085 A 
ATOM      4  C5  <0> d           0.040  -2.733   0.090  0.00  0.00     0.146 A 
ATOM      5  N1  <0> d           0.035  -2.028   1.203  0.00  0.00    -0.247 NA
ATOM      6  C6  <0> d           0.023  -0.709   1.192  0.00  0.00     0.010 A 
ATOM      7 Cl1  <0> d           0.063  -4.467   0.168  0.00  0.00    -0.061 Cl
ATOM      8  C7  <0> d           0.029  -2.861  -2.365  0.00  0.00     0.102 C 
ATOM      9  N2  <0> d           0.033  -3.467  -3.325  0.00  0.00    -0.191 NA
ATOM     10  H4  <0> d          -0.006  -0.171  -2.140  0.00  0.00     0.086 H 
ATOM     11  H5  <0> d           0.025  -0.170   2.128  0.00  0.00     0.115 H 
ENDROOT
BRANCH   1  12
ATOM     12  C1  <0> d          -0.018   1.503   0.010  0.00  0.00    -0.050 C 
ATOM     13  H1  <0> d           1.004   1.880   0.003  0.00  0.00     0.033 H 
ATOM     14  H2  <0> d          -0.545   1.864  -0.873  0.00  0.00     0.033 H 
ATOM     15  H3  <0> d          -0.529   1.854   0.907  0.00  0.00     0.033 H 
ENDBRANCH   1  12
TORSDOF 1
