REMARK  3 active torsions:
REMARK  status: ('A' for Active; 'I' for Inactive)
REMARK    1  A    between atoms: C1_1  and  C2_2 
REMARK    2  A    between atoms: C2_2  and  C3_3 
REMARK    3  A    between atoms: C2_2  and  N1_4 
REMARK       I    between atoms: N1_4  and  C4_5 
REMARK       I    between atoms: C4_5  and  N2_7 
ROOT
ATOM      1  N1  <0> d           0.002  -0.004   0.002  0.00  0.00    -0.339 N 
ATOM      2  C4  <0> d           0.124  -0.683   1.160  0.00  0.00     0.327 C 
ATOM      3  O1  <0> d           0.217  -0.080   2.211  0.00  0.00    -0.246 OA
ATOM      4  N2  <0> d           0.142  -2.030   1.153  0.00  0.00    -0.268 N 
ATOM      5  C5  <0> d           0.266  -2.853   2.247  0.00  0.00     0.007 A 
ATOM      6  C6  <0> d           0.234  -4.117   1.789  0.00  0.00     0.019 A 
ATOM      7  N3  <0> d           0.104  -4.078   0.453  0.00  0.00    -0.254 NA
ATOM      8  C7  <0> d           0.048  -2.837   0.058  0.00  0.00     0.074 A 
ATOM      9  H8  <0> d          -0.083  -0.550  -0.949  0.00  0.00     0.164 HD
ATOM     10  H9  <0> d           0.367  -2.544   3.277  0.00  0.00     0.114 H 
ATOM     11  H10 <0> d           0.305  -5.011   2.391  0.00  0.00     0.117 H 
ATOM     12  H11 <0> d          -0.056  -2.504  -0.964  0.00  0.00     0.144 H 
ENDROOT
BRANCH   1  13
ATOM     13  C2  <0> d          -0.018   1.461   0.010  0.00  0.00     0.007 C 
ATOM     14  H4  <0> d          -0.539   1.773   0.927  0.00  0.00     0.071 H 
BRANCH  13  15
ATOM     15  C1  <0> d           1.418   1.990  -0.001  0.00  0.00    -0.058 C 
ATOM     16  H1  <0> d           1.950   1.626   0.890  0.00  0.00     0.030 H 
ATOM     17  H2  <0> d           1.403   3.090   0.005  0.00  0.00     0.030 H 
ATOM     18  H3  <0> d           1.932   1.636  -0.906  0.00  0.00     0.030 H 
ENDBRANCH  13  15
BRANCH  13  19
ATOM     19  C3  <0> d          -0.758   1.968  -1.230  0.00  0.00    -0.058 C 
ATOM     20  H5  <0> d          -1.790   1.587  -1.222  0.00  0.00     0.030 H 
ATOM     21  H6  <0> d          -0.243   1.613  -2.135  0.00  0.00     0.030 H 
ATOM     22  H7  <0> d          -0.773   3.067  -1.224  0.00  0.00     0.030 H 
ENDBRANCH  13  19
ENDBRANCH   1  13
TORSDOF 3
