REMARK  2 active torsions:
REMARK  status: ('A' for Active; 'I' for Inactive)
REMARK    1  A    between atoms: C1_1  and  C2_2 
REMARK    2  A    between atoms: C2_2  and  C3_3 
ROOT
ATOM      1  C3  <0> d           1.442  -0.361  -0.433  0.00  0.00    -0.031 C 
ATOM      2  H1  <0> d           1.499  -0.508  -1.512  0.00  0.00     0.043 H 
ATOM      3  C4  <0> d           0.002  -0.004   0.002  0.00  0.00     0.014 C 
ATOM      4  C5  <0> d          -0.018   1.509   0.010  0.00  0.00     0.217 C 
ATOM      5  O1  <0> d          -1.022   2.190   0.019  0.00  0.00    -0.274 OA
ATOM      6  N1  <0> d           1.237   1.988   0.001  0.00  0.00    -0.361 N 
ATOM      7  C6  <0> d           2.223   0.901  -0.005  0.00  0.00    -0.001 C 
ATOM      8  H7  <0> d          -0.203  -0.394   0.999  0.00  0.00     0.047 H 
ATOM      9  H8  <0> d          -0.721  -0.391  -0.716  0.00  0.00     0.047 H 
ATOM     10  H9  <0> d           1.463   2.931  -0.002  0.00  0.00     0.162 HD
ATOM     11  H10 <0> d           2.641   0.765   0.993  0.00  0.00     0.064 H 
ATOM     12  H11 <0> d           3.018   1.114  -0.720  0.00  0.00     0.064 H 
ENDROOT
BRANCH   1  13
ATOM     13  C2  <0> d           1.948  -1.598   0.312  0.00  0.00    -0.063 C 
ATOM     14  H5  <0> d           2.030  -1.373   1.375  0.00  0.00     0.033 H 
ATOM     15  H6  <0> d           1.249  -2.421   0.167  0.00  0.00     0.033 H 
BRANCH  13  16
ATOM     16  C1  <0> d           3.322  -1.994  -0.232  0.00  0.00    -0.076 C 
ATOM     17  H2  <0> d           3.241  -2.219  -1.296  0.00  0.00     0.027 H 
ATOM     18  H3  <0> d           4.022  -1.171  -0.087  0.00  0.00     0.027 H 
ATOM     19  H4  <0> d           3.683  -2.875   0.299  0.00  0.00     0.027 H 
ENDBRANCH  13  16
ENDBRANCH   1  13
TORSDOF 2
