REMARK  7 active torsions:
REMARK  status: ('A' for Active; 'I' for Inactive)
REMARK    1  A    between atoms: C1_1  and  C2_2 
REMARK    2  A    between atoms: C2_2  and  C3_3 
REMARK    3  A    between atoms: C2_2  and  C4_4 
REMARK    4  A    between atoms: C4_4  and  C5_5 
REMARK    5  A    between atoms: C4_4  and  C7_8 
REMARK    6  A    between atoms: C7_8  and  C8_9 
REMARK    7  A    between atoms: C7_8  and  C9_10 
ROOT
ATOM      1  C4  <0> d          -0.018   1.468   0.010  0.00  0.00     0.051 C 
ATOM      2  C6  <0> d           0.002  -0.004   0.002  0.00  0.00     0.069 C 
ATOM      3  N1  <0> d           0.018  -1.140  -0.004  0.00  0.00    -0.196 NA
ENDROOT
BRANCH   1   4
ATOM      4  C2  <0> d           1.417   1.997  -0.001  0.00  0.00    -0.041 C 
ATOM      5  H4  <0> d           1.928   1.646  -0.897  0.00  0.00     0.041 H 
BRANCH   4   6
ATOM      6  C1  <0> d           1.397   3.527   0.008  0.00  0.00    -0.072 C 
ATOM      7  H1  <0> d           0.870   3.888  -0.875  0.00  0.00     0.028 H 
ATOM      8  H2  <0> d           0.887   3.879   0.904  0.00  0.00     0.028 H 
ATOM      9  H3  <0> d           2.419   3.905  -0.000  0.00  0.00     0.028 H 
ENDBRANCH   4   6
BRANCH   4  10
ATOM     10  C3  <0> d           2.158   1.490   1.239  0.00  0.00    -0.072 C 
ATOM     11  H5  <0> d           2.172   0.401   1.233  0.00  0.00     0.028 H 
ATOM     12  H6  <0> d           3.180   1.868   1.231  0.00  0.00     0.028 H 
ATOM     13  H7  <0> d           1.647   1.842   2.136  0.00  0.00     0.028 H 
ENDBRANCH   4  10
ENDBRANCH   1   4
BRANCH   1  14
ATOM     14  C5  <0> d          -0.734   1.961   1.269  0.00  0.00    -0.056 C 
ATOM     15  H8  <0> d          -0.207   1.600   2.152  0.00  0.00     0.029 H 
ATOM     16  H9  <0> d          -0.749   3.051   1.275  0.00  0.00     0.029 H 
ATOM     17  H10 <0> d          -1.757   1.584   1.277  0.00  0.00     0.029 H 
ENDBRANCH   1  14
BRANCH   1  18
ATOM     18  C7  <0> d          -0.758   1.975  -1.229  0.00  0.00    -0.041 C 
ATOM     19  H11 <0> d          -0.773   3.064  -1.223  0.00  0.00     0.041 H 
BRANCH  18  20
ATOM     20  C8  <0> d          -0.042   1.481  -2.488  0.00  0.00    -0.072 C 
ATOM     21  H12 <0> d          -0.569   1.842  -3.371  0.00  0.00     0.028 H 
ATOM     22  H13 <0> d           0.981   1.859  -2.496  0.00  0.00     0.028 H 
ATOM     23  H14 <0> d          -0.027   0.391  -2.494  0.00  0.00     0.028 H 
ENDBRANCH  18  20
BRANCH  18  24
ATOM     24  C9  <0> d          -2.193   1.445  -1.219  0.00  0.00    -0.072 C 
ATOM     25  H15 <0> d          -2.704   1.797  -0.322  0.00  0.00     0.028 H 
ATOM     26  H16 <0> d          -2.720   1.806  -2.102  0.00  0.00     0.028 H 
ATOM     27  H17 <0> d          -2.179   0.355  -1.224  0.00  0.00     0.028 H 
ENDBRANCH  18  24
ENDBRANCH   1  18
TORSDOF 7
