REMARK  2 active torsions:
REMARK  status: ('A' for Active; 'I' for Inactive)
REMARK    1  A    between atoms: C3_3  and  C4_4 
REMARK    2  A    between atoms: C4_4  and  C5_5 
ROOT
ATOM      1  C1  <0> d          -0.019   1.526   0.010  0.00  0.00    -0.061 A 
ATOM      2  C2  <0> d           1.317   0.779  -0.006  0.00  0.00    -0.061 A 
ATOM      3  C3  <0> d           0.002  -0.004   0.002  0.00  0.00    -0.046 A 
ATOM      4  H1  <0> d          -0.307   2.020   0.938  0.00  0.00     0.033 H 
ATOM      5  H2  <0> d          -0.325   2.030  -0.906  0.00  0.00     0.033 H 
ATOM      6  H3  <0> d           1.889   0.792  -0.934  0.00  0.00     0.033 H 
ATOM      7  H4  <0> d           1.906   0.782   0.910  0.00  0.00     0.033 H 
ATOM      8  H5  <0> d          -0.273  -0.516   0.924  0.00  0.00     0.040 H 
ENDROOT
BRANCH   3   9
ATOM      9  C4  <0> d          -0.408  -0.709  -1.292  0.00  0.00     0.029 C 
ATOM     10  H6  <0> d          -1.398  -0.366  -1.595  0.00  0.00     0.046 H 
ATOM     11  H7  <0> d           0.312  -0.477  -2.077  0.00  0.00     0.046 H 
BRANCH   9  12
ATOM     12  C5  <0> d          -0.442  -2.221  -1.061  0.00  0.00     0.388 C 
ATOM     13  F1  <0> d          -1.367  -2.518  -0.054  0.00  0.00    -0.171 F 
ATOM     14  F2  <0> d          -0.818  -2.866  -2.244  0.00  0.00    -0.171 F 
ATOM     15  F3  <0> d           0.828  -2.662  -0.672  0.00  0.00    -0.171 F 
ENDBRANCH   9  12
ENDBRANCH   3   9
TORSDOF 2
