REMARK  5 active torsions:
REMARK  status: ('A' for Active; 'I' for Inactive)
REMARK    1  A    between atoms: C1_1  and  C2_2 
REMARK    2  A    between atoms: C2_2  and  N1_3 
REMARK       I    between atoms: N1_3  and  C3_4 
REMARK       I    between atoms: C3_4  and  N2_6 
REMARK    3  A    between atoms: N2_6  and  C4_7 
REMARK    4  A    between atoms: C4_7  and  C5_8 
REMARK    5  A    between atoms: C5_8  and  O2_9 
ROOT
ATOM      1  N1  <0> d          -0.259   5.211   2.659  0.00  0.00    -0.344 N 
ATOM      2  C3  <0> d           0.306   4.819   1.500  0.00  0.00     0.316 C 
ATOM      3  O1  <0> d           0.614   5.647   0.664  0.00  0.00    -0.247 OA
ATOM      4  N2  <0> d           0.530   3.511   1.268  0.00  0.00    -0.341 N 
ATOM      5  H6  <0> d          -0.504   4.551   3.326  0.00  0.00     0.164 HD
ATOM      6  H7  <0> d           0.285   2.851   1.935  0.00  0.00     0.164 HD
ENDROOT
BRANCH   1   7
ATOM      7  C2  <0> d          -0.502   6.633   2.912  0.00  0.00    -0.006 C 
ATOM      8  H4  <0> d           0.444   7.174   2.884  0.00  0.00     0.063 H 
ATOM      9  H5  <0> d          -1.170   7.029   2.147  0.00  0.00     0.063 H 
BRANCH   7  10
ATOM     10  C1  <0> d          -1.147   6.803   4.289  0.00  0.00    -0.061 C 
ATOM     11  H1  <0> d          -2.093   6.262   4.316  0.00  0.00     0.029 H 
ATOM     12  H2  <0> d          -0.480   6.407   5.054  0.00  0.00     0.029 H 
ATOM     13  H3  <0> d          -1.328   7.862   4.477  0.00  0.00     0.029 H 
ENDBRANCH   7  10
ENDBRANCH   1   7
BRANCH   4  14
ATOM     14  C4  <0> d           1.145   3.085   0.008  0.00  0.00     0.016 C 
ATOM     15  H8  <0> d           2.130   3.542  -0.089  0.00  0.00     0.067 H 
ATOM     16  H9  <0> d           0.516   3.397  -0.827  0.00  0.00     0.067 H 
BRANCH  14  17
ATOM     17  C5  <0> d           1.286   1.562  -0.002  0.00  0.00     0.031 C 
ATOM     18  H10 <0> d           1.840   1.243   0.881  0.00  0.00     0.076 H 
ATOM     19  H11 <0> d           1.823   1.252  -0.899  0.00  0.00     0.076 H 
BRANCH  17  20
ATOM     20  O2  <0> d          -0.011   0.963   0.007  0.00  0.00    -0.399 OA
ATOM     21  H12 <0> d           0.002  -0.004   0.002  0.00  0.00     0.209 HD
ENDBRANCH  17  20
ENDBRANCH  14  17
ENDBRANCH   4  14
TORSDOF 5
