REMARK  0 active torsions:
REMARK  status: ('A' for Active; 'I' for Inactive)
ROOT
ATOM      1  C1  <0> d           0.002  -0.004   0.002  0.00  0.00    -0.032 A 
ATOM      2  C2  <0> d           1.199  -0.651  -0.013  0.00  0.00    -0.022 A 
ATOM      3  C3  <0> d           2.396   0.082  -0.021  0.00  0.00     0.228 A 
ATOM      4  N1  <0> d           2.382   1.390  -0.014  0.00  0.00    -0.136 NA
ATOM      5  N2  <0> d           1.171   2.089   0.002  0.00  0.00    -0.223 N 
ATOM      6  C4  <0> d          -0.017   1.404   0.010  0.00  0.00     0.150 A 
ATOM      7  N3  <0> d          -1.003   2.290   0.019  0.00  0.00    -0.240 NA
ATOM      8  C5  <0> d          -0.484   3.518   0.025  0.00  0.00     0.021 A 
ATOM      9  C6  <0> d           0.866   3.417   0.012  0.00  0.00     0.023 A 
ATOM     10  F1  <0> d           3.578  -0.572  -0.036  0.00  0.00    -0.183 F 
ATOM     11  H1  <0> d          -0.922  -0.563   0.008  0.00  0.00     0.089 H 
ATOM     12  H2  <0> d           1.228  -1.731  -0.019  0.00  0.00     0.090 H 
ATOM     13  H3  <0> d          -1.047   4.440   0.035  0.00  0.00     0.117 H 
ATOM     14  H4  <0> d           1.570   4.236   0.009  0.00  0.00     0.117 H 
ENDROOT
TORSDOF 0
