REMARK  1 active torsions:
REMARK  status: ('A' for Active; 'I' for Inactive)
REMARK    1  A    between atoms: C1_1  and  N1_2 
ROOT
ATOM      1  N1  <0> d           2.400  -0.100   0.184  0.00  0.00    -0.220 N 
ATOM      2  C2  <0> d           2.366   1.266   0.736  0.00  0.00     0.019 C 
ATOM      3  C3  <0> d           1.302   2.084   0.001  0.00  0.00     0.025 C 
ATOM      4  C4  <0> d          -0.016   1.345   0.009  0.00  0.00     0.239 C 
ATOM      5  O1  <0> d          -1.067   1.951   0.018  0.00  0.00    -0.272 OA
ATOM      6  N2  <0> d           0.002  -0.004   0.002  0.00  0.00    -0.148 N 
ATOM      7  C5  <0> d           1.173  -0.746   0.074  0.00  0.00     0.702 A 
ATOM      8  N3  <0> d           0.976  -2.019   0.041  0.00  0.00    -0.105 NA
ATOM      9  C6  <0> d          -0.460  -2.315  -0.058  0.00  0.00     0.049 A 
ATOM     10  C7  <0> d          -1.132  -0.926  -0.074  0.00  0.00     0.037 A 
ATOM     11  H4  <0> d           2.120   1.222   1.808  0.00  0.00     0.065 H 
ATOM     12  H5  <0> d           3.350   1.739   0.605  0.00  0.00     0.065 H 
ATOM     13  H6  <0> d           1.175   3.055   0.501  0.00  0.00     0.049 H 
ATOM     14  H7  <0> d           1.619   2.247  -1.040  0.00  0.00     0.049 H 
ATOM     15  H8  <0> d          -0.655  -2.879  -0.982  0.00  0.00     0.070 H 
ATOM     16  H9  <0> d          -0.771  -2.914   0.810  0.00  0.00     0.070 H 
ATOM     17  H10 <0> d          -1.792  -0.768   0.791  0.00  0.00     0.068 H 
ATOM     18  H11 <0> d          -1.693  -0.741  -1.002  0.00  0.00     0.068 H 
ENDROOT
BRANCH   1  19
ATOM     19  C1  <0> d           3.652  -0.740  -0.227  0.00  0.00    -0.002 C 
ATOM     20  H1  <0> d           4.491  -0.050  -0.052  0.00  0.00     0.057 H 
ATOM     21  H2  <0> d           3.602  -0.992  -1.296  0.00  0.00     0.057 H 
ATOM     22  H3  <0> d           3.805  -1.658   0.360  0.00  0.00     0.057 H 
ENDBRANCH   1  19
TORSDOF 1
