REMARK  4 active torsions:
REMARK  status: ('A' for Active; 'I' for Inactive)
REMARK    1  A    between atoms: C1_1  and  C2_2 
REMARK    2  A    between atoms: C2_2  and  C3_4 
REMARK    3  A    between atoms: C2_2  and  O1_10 
REMARK    4  A    between atoms: C3_4  and  N1_5 
ROOT
ATOM      1  C3  <0> d           0.718  -0.497  -1.257  0.00  0.00     0.040 C 
ATOM      2  H5  <0> d           0.244  -0.064  -2.138  0.00  0.00     0.071 H 
ATOM      3  H6  <0> d           1.765  -0.195  -1.222  0.00  0.00     0.071 H 
ENDROOT
BRANCH   1   4
ATOM      4  C2  <0> d           0.002  -0.004   0.002  0.00  0.00     0.049 C 
ATOM      5  H1  <0> d          -1.020  -0.381   0.010  0.00  0.00     0.085 H 
BRANCH   4   6
ATOM      6  C1  <0> d          -0.019   1.526   0.010  0.00  0.00    -0.051 C 
ATOM      7  H2  <0> d           1.004   1.903   0.003  0.00  0.00     0.030 H 
ATOM      8  H3  <0> d          -0.546   1.887  -0.873  0.00  0.00     0.030 H 
ATOM      9  H4  <0> d          -0.529   1.877   0.907  0.00  0.00     0.030 H 
ENDBRANCH   4   6
BRANCH   4  10
ATOM     10  O1  <0> d           0.693  -0.477   1.160  0.00  0.00    -0.394 OA
ATOM     11  H10 <0> d           1.611  -0.180   1.219  0.00  0.00     0.210 HD
ENDBRANCH   4  10
ENDBRANCH   1   4
BRANCH   1  12
ATOM     12  N1  <0> d           0.634  -1.958  -1.325  0.00  0.00    -0.279 N 
ATOM     13  N2  <0> d           1.043  -2.855  -0.330  0.00  0.00    -0.185 NA
ATOM     14  C6  <0> d           0.810  -4.071  -0.754  0.00  0.00     0.023 A 
ATOM     15  C5  <0> d           0.246  -3.987  -2.032  0.00  0.00    -0.048 A 
ATOM     16  H9  <0> d           1.018  -4.981  -0.212  0.00  0.00     0.117 H 
ATOM     17  C4  <0> d           0.143  -2.678  -2.357  0.00  0.00    -0.000 A 
ATOM     18  H8  <0> d          -0.058  -4.821  -2.648  0.00  0.00     0.087 H 
ATOM     19  H7  <0> d          -0.257  -2.280  -3.277  0.00  0.00     0.114 H 
ENDBRANCH   1  12
TORSDOF 4
