REMARK  2 active torsions:
REMARK  status: ('A' for Active; 'I' for Inactive)
REMARK    1  A    between atoms: C1_1  and  C2_2 
REMARK       I    between atoms: C2_2  and  N1_4 
REMARK    2  A    between atoms: N1_4  and  C3_5 
ROOT
ATOM      1  C3  <0> d          -2.348   1.079  -0.043  0.00  0.00     0.103 A 
ATOM      2  C4  <0> d          -3.582   1.665  -0.118  0.00  0.00    -0.050 A 
ATOM      3  C5  <0> d          -4.723   0.853  -0.179  0.00  0.00    -0.066 A 
ATOM      4  C6  <0> d          -4.598  -0.493  -0.163  0.00  0.00    -0.020 A 
ATOM      5  N2  <0> d          -3.373  -1.078  -0.089  0.00  0.00    -0.332 N 
ATOM      6  H1  <0> d          -3.287  -2.175  -0.072  0.00  0.00     0.168 HD
ATOM      7  C7  <0> d          -2.254  -0.330  -0.035  0.00  0.00     0.272 A 
ATOM      8  O2  <0> d          -1.161  -0.869   0.027  0.00  0.00    -0.266 OA
ATOM      9  H6  <0> d          -3.675   2.741  -0.130  0.00  0.00     0.087 H 
ATOM     10  H7  <0> d          -5.703   1.304  -0.238  0.00  0.00     0.085 H 
ATOM     11  H8  <0> d          -5.482  -1.112  -0.209  0.00  0.00     0.111 H 
ENDROOT
BRANCH   1  12
ATOM     12  N1  <0> d          -1.191   1.867   0.018  0.00  0.00    -0.323 N 
ATOM     13  C2  <0> d          -0.349   1.748   1.064  0.00  0.00     0.218 C 
ATOM     14  O1  <0> d          -0.637   1.026   1.995  0.00  0.00    -0.274 OA
ATOM     15  H5  <0> d          -0.969   2.583  -0.788  0.00  0.00     0.169 HD
BRANCH  13  16
ATOM     16  C1  <0> d           0.953   2.506   1.073  0.00  0.00    -0.003 C 
ATOM     17  H2  <0> d           1.037   3.102   0.152  0.00  0.00     0.040 H 
ATOM     18  H3  <0> d           1.791   1.796   1.128  0.00  0.00     0.040 H 
ATOM     19  H4  <0> d           0.982   3.175   1.946  0.00  0.00     0.040 H 
ENDBRANCH  13  16
ENDBRANCH   1  12
TORSDOF 2
