REMARK  2 active torsions:
REMARK  status: ('A' for Active; 'I' for Inactive)
REMARK    1  A    between atoms: C4_5  and  C5_6 
REMARK    2  A    between atoms: C5_6  and  O1_7 
ROOT
ATOM      1  C1  <0> d           1.221  -0.657  -0.013  0.00  0.00    -0.066 A 
ATOM      2  C2  <0> d           0.002  -0.004   0.002  0.00  0.00    -0.054 A 
ATOM      3  C3  <0> d          -0.016   1.352   0.009  0.00  0.00     0.075 A 
ATOM      4  S1  <0> d           1.725   1.745  -0.005  0.00  0.00    -0.080 SA
ATOM      5  C4  <0> d           2.360   0.077  -0.020  0.00  0.00     0.007 A 
ATOM      6 Cl1  <0> d          -1.379   2.427   0.022  0.00  0.00    -0.076 Cl
ATOM      7  H1  <0> d           1.264  -1.736  -0.019  0.00  0.00     0.085 H 
ATOM      8  H2  <0> d          -0.921  -0.565   0.008  0.00  0.00     0.086 H 
ENDROOT
BRANCH   5   9
ATOM      9  C5  <0> d           3.792  -0.394  -0.037  0.00  0.00     0.046 C 
ATOM     10  H3  <0> d           4.420   0.335   0.475  0.00  0.00     0.082 H 
ATOM     11  H4  <0> d           3.864  -1.356   0.470  0.00  0.00     0.082 H 
BRANCH   9  12
ATOM     12  O1  <0> d           4.231  -0.534  -1.389  0.00  0.00    -0.396 OA
ATOM     13  H5  <0> d           5.146  -0.835  -1.477  0.00  0.00     0.209 HD
ENDBRANCH   9  12
ENDBRANCH   5   9
TORSDOF 2
