REMARK  2 active torsions:
REMARK  status: ('A' for Active; 'I' for Inactive)
REMARK    1  A    between atoms: C1_1  and  C2_2 
REMARK    2  A    between atoms: C3_3  and  C7_8 
REMARK       I    between atoms: C7_8  and  N2_10 
ROOT
ATOM      1  C2  <0> d          -0.023  -0.005   0.004  0.00  0.00     0.046 A 
ATOM      2  C3  <0> d          -0.100  -0.691  -1.209  0.00  0.00     0.056 A 
ATOM      3  C4  <0> d          -0.054  -2.090  -1.198  0.00  0.00    -0.064 A 
ATOM      4  C5  <0> d           0.067  -2.733   0.021  0.00  0.00    -0.065 A 
ATOM      5  C6  <0> d           0.137  -1.980   1.179  0.00  0.00     0.003 A 
ATOM      6  N1  <0> d           0.096  -0.662   1.139  0.00  0.00    -0.265 NA
ATOM      7  H4  <0> d          -0.111  -2.653  -2.118  0.00  0.00     0.085 H 
ATOM      8  H5  <0> d           0.105  -3.811   0.068  0.00  0.00     0.085 H 
ATOM      9  H6  <0> d           0.231  -2.480   2.133  0.00  0.00     0.114 H 
ENDROOT
BRANCH   2  10
ATOM     10  C7  <0> d          -0.228   0.048  -2.483  0.00  0.00     0.251 C 
ATOM     11  O1  <0> d          -0.154   1.261  -2.493  0.00  0.00    -0.268 OA
ATOM     12  N2  <0> d          -0.428  -0.625  -3.634  0.00  0.00    -0.366 N 
ATOM     13  H7  <0> d          -0.487  -1.593  -3.627  0.00  0.00     0.159 HD
ATOM     14  H8  <0> d          -0.512  -0.140  -4.470  0.00  0.00     0.159 HD
ENDBRANCH   2  10
BRANCH   1  15
ATOM     15  C1  <0> d          -0.072   1.502   0.015  0.00  0.00    -0.035 C 
ATOM     16  H1  <0> d           0.923   1.898  -0.187  0.00  0.00     0.035 H 
ATOM     17  H2  <0> d          -0.764   1.848  -0.752  0.00  0.00     0.035 H 
ATOM     18  H3  <0> d          -0.409   1.847   0.992  0.00  0.00     0.035 H 
ENDBRANCH   1  15
TORSDOF 2
