REMARK  4 active torsions:
REMARK  status: ('A' for Active; 'I' for Inactive)
REMARK    1  A    between atoms: C1_1  and  C2_2 
REMARK    2  A    between atoms: C2_2  and  C3_4 
REMARK    3  A    between atoms: C2_2  and  C5_8 
REMARK    4  A    between atoms: C3_4  and  C4_5 
ROOT
ATOM      1  C2  <0> d           0.002  -0.004   0.002  0.00  0.00     0.032 C 
ATOM      2  H1  <0> d          -1.020  -0.381   0.010  0.00  0.00     0.056 H 
ENDROOT
BRANCH   1   3
ATOM      3  C1  <0> d          -0.019   1.526   0.010  0.00  0.00    -0.063 C 
ATOM      4  H2  <0> d           1.004   1.903   0.003  0.00  0.00     0.028 H 
ATOM      5  H3  <0> d          -0.546   1.887  -0.873  0.00  0.00     0.028 H 
ATOM      6  H4  <0> d          -0.529   1.877   0.907  0.00  0.00     0.028 H 
ENDBRANCH   1   3
BRANCH   1   7
ATOM      7  C3  <0> d           0.718  -0.497  -1.257  0.00  0.00     0.002 C 
ATOM      8  H5  <0> d           1.710  -0.049  -1.310  0.00  0.00     0.042 H 
ATOM      9  H6  <0> d           0.812  -1.583  -1.220  0.00  0.00     0.042 H 
BRANCH   7  10
ATOM     10  C4  <0> d          -0.089  -0.097  -2.493  0.00  0.00     0.209 C 
ATOM     11  F1  <0> d          -0.113   1.298  -2.603  0.00  0.00    -0.214 F 
ATOM     12  F2  <0> d           0.504  -0.645  -3.635  0.00  0.00    -0.214 F 
ATOM     13  H7  <0> d          -1.109  -0.471  -2.398  0.00  0.00     0.145 H 
ENDBRANCH   7  10
ENDBRANCH   1   7
BRANCH   1  14
ATOM     14  C5  <0> d           0.731  -0.503   1.223  0.00  0.00     0.176 C 
ATOM     15  O1  <0> d           0.315  -1.478   1.825  0.00  0.00    -0.648 OA
ATOM     16  O2  <0> d           1.737   0.068   1.608  0.00  0.00    -0.648 OA
ENDBRANCH   1  14
TORSDOF 4
