REMARK  5 active torsions:
REMARK  status: ('A' for Active; 'I' for Inactive)
REMARK    1  A    between atoms: C1_1  and  O1_2 
REMARK    2  A    between atoms: O1_2  and  C2_3 
REMARK    3  A    between atoms: C4_6  and  O4_13 
REMARK    4  A    between atoms: C5_8  and  C6_11 
REMARK    5  A    between atoms: C6_11  and  O3_12 
ROOT
ATOM      1  C2  <0> d          -2.037   1.106   1.292  0.00  0.00     0.133 C 
ATOM      2  H1  <0> d          -2.087   0.018   1.239  0.00  0.00     0.129 H 
ATOM      3  C3  <0> d          -2.663   1.612   2.610  0.00  0.00     0.007 C 
ATOM      4  C4  <0> d          -4.121   1.949   2.228  0.00  0.00     0.067 C 
ATOM      5  H2  <0> d          -4.326   3.007   2.391  0.00  0.00     0.087 H 
ATOM      6  C5  <0> d          -4.204   1.607   0.724  0.00  0.00     0.086 C 
ATOM      7  H3  <0> d          -4.588   0.597   0.583  0.00  0.00     0.090 H 
ATOM      8  O2  <0> d          -2.842   1.698   0.250  0.00  0.00    -0.351 OA
ATOM      9  H7  <0> d          -2.638   0.830   3.370  0.00  0.00     0.044 H 
ATOM     10  H8  <0> d          -2.144   2.504   2.962  0.00  0.00     0.044 H 
ENDROOT
BRANCH   1  11
ATOM     11  O1  <0> d          -0.682   1.547   1.184  0.00  0.00    -0.366 OA
BRANCH  11  12
ATOM     12  C1  <0> d          -0.013   1.086   0.008  0.00  0.00     0.007 C 
ATOM     13  H4  <0> d           0.002  -0.004   0.002  0.00  0.00     0.066 H 
ATOM     14  H5  <0> d           1.010   1.463   0.000  0.00  0.00     0.066 H 
ATOM     15  H6  <0> d          -0.540   1.447  -0.875  0.00  0.00     0.066 H 
ENDBRANCH  11  12
ENDBRANCH   1  11
BRANCH   6  16
ATOM     16  C6  <0> d          -5.090   2.619  -0.005  0.00  0.00     0.043 C 
ATOM     17  H9  <0> d          -6.084   2.620   0.441  0.00  0.00     0.078 H 
ATOM     18  H10 <0> d          -4.652   3.614   0.082  0.00  0.00     0.078 H 
BRANCH  16  19
ATOM     19  O3  <0> d          -5.187   2.261  -1.385  0.00  0.00    -0.398 OA
ATOM     20  H11 <0> d          -5.735   2.861  -1.909  0.00  0.00     0.209 HD
ENDBRANCH  16  19
ENDBRANCH   6  16
BRANCH   4  21
ATOM     21  O4  <0> d          -5.034   1.143   2.975  0.00  0.00    -0.393 OA
ATOM     22  H12 <0> d          -5.024   1.317   3.927  0.00  0.00     0.210 HD
ENDBRANCH   4  21
TORSDOF 5
