REMARK  2 active torsions:
REMARK  status: ('A' for Active; 'I' for Inactive)
REMARK    1  A    between atoms: C3_3  and  C7_9 
REMARK    2  A    between atoms: C7_9  and  O1_10 
ROOT
ATOM      1  C1  <0> d          -0.238   5.016   0.031  0.00  0.00    -0.079 A 
ATOM      2  C2  <0> d          -0.109   3.640   0.023  0.00  0.00    -0.072 A 
ATOM      3  C3  <0> d           1.147   3.062   0.008  0.00  0.00     0.007 A 
ATOM      4  C4  <0> d           2.276   3.862   0.007  0.00  0.00     0.163 A 
ATOM      5  C5  <0> d           2.147   5.243   0.011  0.00  0.00     0.155 A 
ATOM      6  C6  <0> d           0.888   5.818   0.025  0.00  0.00    -0.043 A 
ATOM      7  F1  <0> d           3.248   6.026   0.005  0.00  0.00    -0.203 F 
ATOM      8  F2  <0> d           3.504   3.299  -0.002  0.00  0.00    -0.202 F 
ATOM      9  H1  <0> d          -1.220   5.465   0.042  0.00  0.00     0.083 H 
ATOM     10  H2  <0> d          -0.990   3.015   0.027  0.00  0.00     0.084 H 
ATOM     11  H3  <0> d           0.785   6.893   0.032  0.00  0.00     0.088 H 
ENDROOT
BRANCH   3  12
ATOM     12  C7  <0> d           1.286   1.562  -0.002  0.00  0.00     0.043 C 
ATOM     13  H4  <0> d           1.840   1.243   0.881  0.00  0.00     0.081 H 
ATOM     14  H5  <0> d           1.823   1.252  -0.899  0.00  0.00     0.081 H 
BRANCH  12  15
ATOM     15  O1  <0> d          -0.011   0.963   0.007  0.00  0.00    -0.396 OA
ATOM     16  H6  <0> d           0.002  -0.004   0.002  0.00  0.00     0.209 HD
ENDBRANCH  12  15
ENDBRANCH   3  12
TORSDOF 2
