REMARK  1 active torsions:
REMARK  status: ('A' for Active; 'I' for Inactive)
REMARK    1  A    between atoms: C3_3  and  O1_10 
ROOT
ATOM      1  C1  <0> d          -1.219   1.749   0.017  0.00  0.00    -0.059 A 
ATOM      2  C2  <0> d          -0.013   1.076   0.008  0.00  0.00    -0.048 A 
ATOM      3  C3  <0> d           1.179   1.784   0.000  0.00  0.00     0.086 A 
ATOM      4  C4  <0> d           1.155   3.186   0.008  0.00  0.00     0.079 A 
ATOM      5  C5  <0> d          -0.071   3.855   0.022  0.00  0.00    -0.039 A 
ATOM      6  C6  <0> d          -1.248   3.135   0.030  0.00  0.00     0.035 A 
ATOM      7 Cl1  <0> d          -2.771   3.967   0.048  0.00  0.00    -0.084 Cl
ATOM      8  C7  <0> d           2.380   3.927   0.000  0.00  0.00     0.102 C 
ATOM      9  N1  <0> d           3.351   4.515  -0.005  0.00  0.00    -0.191 NA
ATOM     10  H1  <0> d          -2.144   1.192   0.019  0.00  0.00     0.086 H 
ATOM     11  H2  <0> d           0.002  -0.004   0.002  0.00  0.00     0.087 H 
ATOM     12  H3  <0> d          -0.098   4.935   0.028  0.00  0.00     0.088 H 
ENDROOT
BRANCH   3  13
ATOM     13  O1  <0> d           2.364   1.123  -0.015  0.00  0.00    -0.359 OA
ATOM     14  H4  <0> d           2.699   0.936  -0.902  0.00  0.00     0.217 HD
ENDBRANCH   3  13
TORSDOF 1
