REMARK  2 active torsions:
REMARK  status: ('A' for Active; 'I' for Inactive)
REMARK    1  A    between atoms: C1_1  and  C2_2 
REMARK    2  A    between atoms: C2_2  and  O3_9 
ROOT
ATOM      1  C2  <0> d           0.002  -0.004   0.002  0.00  0.00     0.065 C 
ATOM      2  C3  <0> d           0.732  -0.501  -1.250  0.00  0.00    -0.016 C 
ATOM      3  C4  <0> d           0.766  -2.031  -1.244  0.00  0.00     0.031 C 
ATOM      4  O1  <0> d           1.422  -2.485  -0.055  0.00  0.00    -0.321 OA
ATOM      5  C5  <0> d           0.927  -2.010   1.106  0.00  0.00     0.261 C 
ATOM      6  O2  <0> d           0.638  -2.758   2.010  0.00  0.00    -0.265 OA
ATOM      7  C6  <0> d           0.744  -0.515   1.244  0.00  0.00     0.044 C 
ATOM      8  H4  <0> d           0.208  -0.152  -2.139  0.00  0.00     0.040 H 
ATOM      9  H5  <0> d           1.752  -0.114  -1.254  0.00  0.00     0.040 H 
ATOM     10  H6  <0> d          -0.253  -2.418  -1.268  0.00  0.00     0.075 H 
ATOM     11  H7  <0> d           1.311  -2.386  -2.119  0.00  0.00     0.075 H 
ATOM     12  H8  <0> d           1.717  -0.030   1.316  0.00  0.00     0.052 H 
ATOM     13  H9  <0> d           0.158  -0.297   2.137  0.00  0.00     0.052 H 
ENDROOT
BRANCH   1  14
ATOM     14  C1  <0> d          -0.019   1.526   0.010  0.00  0.00    -0.047 C 
ATOM     15  H1  <0> d           1.004   1.903   0.003  0.00  0.00     0.031 H 
ATOM     16  H2  <0> d          -0.546   1.887  -0.873  0.00  0.00     0.031 H 
ATOM     17  H3  <0> d          -0.529   1.877   0.907  0.00  0.00     0.031 H 
ENDBRANCH   1  14
BRANCH   1  18
ATOM     18  O3  <0> d          -1.338  -0.501   0.006  0.00  0.00    -0.390 OA
ATOM     19  H10 <0> d          -1.856  -0.228   0.776  0.00  0.00     0.210 HD
ENDBRANCH   1  18
TORSDOF 2
