REMARK  5 active torsions:
REMARK  status: ('A' for Active; 'I' for Inactive)
REMARK    1  A    between atoms: C1_1  and  C2_2 
REMARK    2  A    between atoms: C2_2  and  O1_3 
REMARK    3  A    between atoms: O1_3  and  C3_4 
REMARK    4  A    between atoms: C3_4  and  C4_6 
REMARK    5  A    between atoms: C6_9  and  C7_11 
ROOT
ATOM      1  C4  <0> d          -0.019   1.526   0.010  0.00  0.00     0.044 A 
ATOM      2  H1  <0> d          -0.325   2.030  -0.906  0.00  0.00     0.057 H 
ATOM      3  C5  <0> d           0.002  -0.004   0.002  0.00  0.00    -0.039 A 
ATOM      4  C6  <0> d           1.317   0.779  -0.006  0.00  0.00     0.043 A 
ATOM      5  H2  <0> d           1.906   0.782   0.910  0.00  0.00     0.058 H 
ATOM      6  H8  <0> d          -0.273  -0.516   0.924  0.00  0.00     0.035 H 
ATOM      7  H9  <0> d          -0.291  -0.506  -0.920  0.00  0.00     0.035 H 
ENDROOT
BRANCH   1   8
ATOM      8  C3  <0> d          -0.418   2.209   1.293  0.00  0.00     0.263 C 
ATOM      9  O2  <0> d           0.308   2.154   2.258  0.00  0.00    -0.265 OA
BRANCH   8  10
ATOM     10  O1  <0> d          -1.579   2.879   1.363  0.00  0.00    -0.322 OA
BRANCH  10  11
ATOM     11  C2  <0> d          -1.898   3.513   2.630  0.00  0.00     0.025 C 
ATOM     12  H6  <0> d          -1.949   2.756   3.413  0.00  0.00     0.074 H 
ATOM     13  H7  <0> d          -1.125   4.240   2.878  0.00  0.00     0.074 H 
BRANCH  11  14
ATOM     14  C1  <0> d          -3.249   4.223   2.519  0.00  0.00    -0.056 C 
ATOM     15  H3  <0> d          -3.489   4.698   3.470  0.00  0.00     0.030 H 
ATOM     16  H4  <0> d          -3.198   4.980   1.736  0.00  0.00     0.030 H 
ATOM     17  H5  <0> d          -4.022   3.495   2.271  0.00  0.00     0.030 H 
ENDBRANCH  11  14
ENDBRANCH  10  11
ENDBRANCH   8  10
ENDBRANCH   1   8
BRANCH   4  18
ATOM     18  C7  <0> d           2.108   0.797  -1.289  0.00  0.00     0.177 C 
ATOM     19  O3  <0> d           1.681   1.386  -2.253  0.00  0.00    -0.648 OA
ATOM     20  O4  <0> d           3.286   0.158  -1.359  0.00  0.00    -0.648 OA
ENDBRANCH   4  18
TORSDOF 5
