REMARK  3 active torsions:
REMARK  status: ('A' for Active; 'I' for Inactive)
REMARK    1  A    between atoms: C1_1  and  C2_2 
REMARK    2  A    between atoms: C5_5  and  C7_8 
REMARK    3  A    between atoms: C7_8  and  O1_9 
ROOT
ATOM      1  C2  <0> d           0.002  -0.004   0.002  0.00  0.00    -0.044 A 
ATOM      2  C3  <0> d           0.006  -0.700  -1.198  0.00  0.00    -0.074 A 
ATOM      3  C4  <0> d           0.025  -2.085  -1.157  0.00  0.00    -0.057 A 
ATOM      4  C5  <0> d           0.039  -2.723   0.069  0.00  0.00     0.057 A 
ATOM      5  N1  <0> d           0.035  -2.029   1.190  0.00  0.00    -0.263 NA
ATOM      6  C6  <0> d           0.023  -0.710   1.190  0.00  0.00     0.008 A 
ATOM      7  H4  <0> d          -0.006  -0.174  -2.141  0.00  0.00     0.084 H 
ATOM      8  H5  <0> d           0.028  -2.659  -2.072  0.00  0.00     0.086 H 
ATOM      9  H6  <0> d           0.025  -0.176   2.128  0.00  0.00     0.115 H 
ENDROOT
BRANCH   4  10
ATOM     10  C7  <0> d           0.060  -4.229   0.126  0.00  0.00     0.056 C 
ATOM     11  H7  <0> d           0.957  -4.560   0.648  0.00  0.00     0.083 H 
ATOM     12  H8  <0> d          -0.823  -4.585   0.657  0.00  0.00     0.083 H 
BRANCH  10  13
ATOM     13  O1  <0> d           0.061  -4.755  -1.203  0.00  0.00    -0.395 OA
ATOM     14  H9  <0> d           0.074  -5.721  -1.243  0.00  0.00     0.209 HD
ENDBRANCH  10  13
ENDBRANCH   4  10
BRANCH   1  15
ATOM     15  C1  <0> d          -0.018   1.503   0.010  0.00  0.00    -0.050 C 
ATOM     16  H1  <0> d           1.004   1.880   0.003  0.00  0.00     0.033 H 
ATOM     17  H2  <0> d          -0.545   1.864  -0.873  0.00  0.00     0.033 H 
ATOM     18  H3  <0> d          -0.529   1.854   0.907  0.00  0.00     0.033 H 
ENDBRANCH   1  15
TORSDOF 3
