REMARK  3 active torsions:
REMARK  status: ('A' for Active; 'I' for Inactive)
REMARK    1  A    between atoms: C1_1  and  C2_2 
REMARK    2  A    between atoms: C5_5  and  C8_8 
REMARK    3  A    between atoms: C8_8  and  C9_10 
ROOT
ATOM      1  C8  <0> d           0.002  -0.004   0.002  0.00  0.00     0.052 C 
ATOM      2  H1  <0> d           1.042  -0.360  -0.044  0.00  0.00     0.069 H 
ATOM      3  C10 <0> d          -0.697  -0.498  -1.196  0.00  0.00     0.068 C 
ATOM      4  N1  <0> d          -1.236  -0.879  -2.120  0.00  0.00    -0.197 NA
ENDROOT
BRANCH   1   5
ATOM      5  C5  <0> d          -0.018   1.503   0.010  0.00  0.00    -0.041 A 
ATOM      6  C4  <0> d           1.169   2.210   0.003  0.00  0.00    -0.075 A 
ATOM      7  C3  <0> d           1.151   3.592   0.010  0.00  0.00    -0.077 A 
ATOM      8  H6  <0> d           2.112   1.683  -0.009  0.00  0.00     0.084 H 
ATOM      9  C2  <0> d          -0.056   4.267   0.025  0.00  0.00    -0.062 A 
ATOM     10  H5  <0> d           2.078   4.145   0.004  0.00  0.00     0.084 H 
ATOM     11  C7  <0> d          -1.244   3.560   0.032  0.00  0.00    -0.077 A 
ATOM     12  C6  <0> d          -1.225   2.178   0.020  0.00  0.00    -0.075 A 
ATOM     13  H8  <0> d          -2.186   4.087   0.044  0.00  0.00     0.084 H 
ATOM     14  H7  <0> d          -2.153   1.625   0.021  0.00  0.00     0.084 H 
BRANCH   9  15
ATOM     15  C1  <0> d          -0.076   5.774   0.034  0.00  0.00    -0.051 C 
ATOM     16  H2  <0> d           0.956   6.155   0.026  0.00  0.00     0.033 H 
ATOM     17  H3  <0> d          -0.592   6.129   0.938  0.00  0.00     0.033 H 
ATOM     18  H4  <0> d          -0.608   6.138  -0.858  0.00  0.00     0.033 H 
ENDBRANCH   9  15
ENDBRANCH   1   5
BRANCH   1  19
ATOM     19  C9  <0> d          -0.700  -0.530   1.255  0.00  0.00    -0.057 C 
ATOM     20  H9  <0> d          -0.685  -1.630   1.249  0.00  0.00     0.029 H 
ATOM     21  H10 <0> d          -1.742  -0.178   1.267  0.00  0.00     0.029 H 
ATOM     22  H11 <0> d          -0.178  -0.162   2.150  0.00  0.00     0.029 H 
ENDBRANCH   1  19
TORSDOF 3
