REMARK  0 active torsions:
REMARK  status: ('A' for Active; 'I' for Inactive)
ROOT
ATOM      1  C1  <0> d           1.194  -0.708  -0.011  0.00  0.00    -0.059 A 
ATOM      2  C2  <0> d           0.002  -0.004   0.002  0.00  0.00     0.002 A 
ATOM      3  N1  <0> d          -0.016   1.315   0.009  0.00  0.00    -0.272 NA
ATOM      4  C3  <0> d           1.094   2.026   0.003  0.00  0.00     0.016 A 
ATOM      5  C4  <0> d           2.336   1.387  -0.012  0.00  0.00     0.034 A 
ATOM      6  C5  <0> d           2.389  -0.010  -0.017  0.00  0.00    -0.042 A 
ATOM      7  C6  <0> d           3.694  -0.753  -0.022  0.00  0.00    -0.040 C 
ATOM      8  C7  <0> d           4.824   0.120  -0.563  0.00  0.00    -0.055 C 
ATOM      9  C8  <0> d           4.880   1.433   0.229  0.00  0.00    -0.005 C 
ATOM     10  C9  <0> d           3.582   2.174  -0.025  0.00  0.00     0.161 C 
ATOM     11  O1  <0> d           3.570   3.369  -0.231  0.00  0.00    -0.292 OA
ATOM     12  H1  <0> d           1.191  -1.788  -0.018  0.00  0.00     0.086 H 
ATOM     13  H2  <0> d          -0.932  -0.546   0.006  0.00  0.00     0.114 H 
ATOM     14  H3  <0> d           1.044   3.104   0.008  0.00  0.00     0.116 H 
ATOM     15  H4  <0> d           3.935  -1.058   0.997  0.00  0.00     0.040 H 
ATOM     16  H5  <0> d           3.598  -1.640  -0.647  0.00  0.00     0.040 H 
ATOM     17  H6  <0> d           4.643   0.338  -1.615  0.00  0.00     0.034 H 
ATOM     18  H7  <0> d           5.772  -0.407  -0.459  0.00  0.00     0.034 H 
ATOM     19  H8  <0> d           5.662   1.976  -0.079  0.00  0.00     0.044 H 
ATOM     20  H9  <0> d           4.983   1.221   1.293  0.00  0.00     0.044 H 
ENDROOT
TORSDOF 0
