REMARK  6 active torsions:
REMARK  status: ('A' for Active; 'I' for Inactive)
REMARK    1  A    between atoms: C1_1  and  O1_2 
REMARK    2  A    between atoms: O1_2  and  C2_3 
REMARK    3  A    between atoms: C2_3  and  C3_4 
REMARK    4  A    between atoms: C3_4  and  C4_6 
REMARK    5  A    between atoms: C3_4  and  O3_8 
REMARK    6  A    between atoms: C4_6  and  O2_7 
ROOT
ATOM      1  C3  <0> d          -0.729   1.579   1.267  0.00  0.00     0.076 C 
ATOM      2  H1  <0> d          -1.776   1.277   1.232  0.00  0.00     0.089 H 
ENDROOT
BRANCH   1   3
ATOM      3  C2  <0> d          -0.064   0.971   2.503  0.00  0.00     0.045 C 
ATOM      4  H5  <0> d          -0.047  -0.115   2.410  0.00  0.00     0.078 H 
ATOM      5  H6  <0> d           0.957   1.344   2.587  0.00  0.00     0.078 H 
BRANCH   3   6
ATOM      6  O1  <0> d          -0.802   1.338   3.670  0.00  0.00    -0.393 OA
BRANCH   6   7
ATOM      7  C1  <0> d          -0.262   0.819   4.887  0.00  0.00     0.004 C 
ATOM      8  H2  <0> d           0.754   1.188   5.021  0.00  0.00     0.066 H 
ATOM      9  H3  <0> d          -0.879   1.141   5.726  0.00  0.00     0.066 H 
ATOM     10  H4  <0> d          -0.250  -0.271   4.843  0.00  0.00     0.066 H 
ENDBRANCH   6   7
ENDBRANCH   3   6
ENDBRANCH   1   3
BRANCH   1  11
ATOM     11  C4  <0> d          -0.013   1.086   0.008  0.00  0.00     0.042 C 
ATOM     12  H7  <0> d           0.002  -0.004   0.002  0.00  0.00     0.078 H 
ATOM     13  H8  <0> d           1.010   1.463   0.000  0.00  0.00     0.078 H 
BRANCH  11  14
ATOM     14  O2  <0> d          -0.704   1.559  -1.150  0.00  0.00    -0.398 OA
ATOM     15  H9  <0> d          -0.304   1.284  -1.986  0.00  0.00     0.209 HD
ENDBRANCH  11  14
ENDBRANCH   1  11
BRANCH   1  16
ATOM     16  O3  <0> d          -0.647   3.004   1.334  0.00  0.00    -0.391 OA
ATOM     17  H10 <0> d           0.258   3.345   1.368  0.00  0.00     0.210 HD
ENDBRANCH   1  16
TORSDOF 6
