REMARK  2 active torsions:
REMARK  status: ('A' for Active; 'I' for Inactive)
REMARK    1  A    between atoms: C2_4  and  C3_7 
REMARK    2  A    between atoms: C3_7  and  C4_8 
REMARK       I    between atoms: C4_8  and  N4_10 
ROOT
ATOM      1  C3  <0> d           1.609   4.314   0.010  0.00  0.00     0.065 C 
ATOM      2  H3  <0> d           2.166   4.343  -0.926  0.00  0.00     0.059 H 
ATOM      3  H4  <0> d           1.020   5.226   0.111  0.00  0.00     0.059 H 
ENDROOT
BRANCH   1   4
ATOM      4  C2  <0> d           0.690   3.119   0.012  0.00  0.00     0.130 A 
ATOM      5  N1  <0> d           1.061   1.865   0.002  0.00  0.00    -0.225 NA
ATOM      6  C1  <0> d          -0.013   1.076   0.008  0.00  0.00     0.107 A 
ATOM      7  H2  <0> d           0.002  -0.004   0.002  0.00  0.00     0.149 H 
ATOM      8  N3  <0> d          -1.087   1.821   0.017  0.00  0.00    -0.167 NA
ATOM      9  N2  <0> d          -0.654   3.157   0.025  0.00  0.00    -0.263 N 
ATOM     10  H1  <0> d          -1.213   3.949   0.035  0.00  0.00     0.190 HD
ENDBRANCH   1   4
BRANCH   1  11
ATOM     11  C4  <0> d           2.572   4.209   1.165  0.00  0.00     0.222 C 
ATOM     12  O1  <0> d           2.518   3.257   1.915  0.00  0.00    -0.273 OA
ATOM     13  N4  <0> d           3.494   5.172   1.363  0.00  0.00    -0.370 N 
ATOM     14  H5  <0> d           3.537   5.933   0.763  0.00  0.00     0.159 HD
ATOM     15  H6  <0> d           4.114   5.104   2.106  0.00  0.00     0.159 HD
ENDBRANCH   1  11
TORSDOF 2
