REMARK  1 active torsions:
REMARK  status: ('A' for Active; 'I' for Inactive)
REMARK    1  A    between atoms: C3_3  and  C5_6 
ROOT
ATOM      1  C1  <0> d          -0.016   1.355   0.009  0.00  0.00    -0.075 A 
ATOM      2  C2  <0> d           1.175   2.042   0.002  0.00  0.00    -0.062 A 
ATOM      3  C3  <0> d           2.347   1.329  -0.013  0.00  0.00     0.056 A 
ATOM      4  S1  <0> d           1.752  -0.355  -0.017  0.00  0.00    -0.098 SA
ATOM      5  C4  <0> d           0.002  -0.004   0.002  0.00  0.00    -0.044 A 
ATOM      6  H1  <0> d          -0.955   1.889   0.026  0.00  0.00     0.084 H 
ATOM      7  H2  <0> d           1.188   3.122   0.007  0.00  0.00     0.085 H 
ATOM      8  H3  <0> d          -0.829  -0.694   0.007  0.00  0.00     0.095 H 
ENDROOT
BRANCH   3   9
ATOM      9  C5  <0> d           3.734   1.823  -0.024  0.00  0.00     0.213 A 
ATOM     10  N1  <0> d           4.847   1.083  -0.038  0.00  0.00    -0.105 NA
ATOM     11  N2  <0> d           5.850   1.894  -0.044  0.00  0.00    -0.021 NA
ATOM     12  N3  <0> d           5.418   3.106  -0.033  0.00  0.00    -0.021 NA
ATOM     13  N4  <0> d           4.129   3.100  -0.027  0.00  0.00    -0.105 NA
ENDBRANCH   3   9
TORSDOF 1
