REMARK  5 active torsions:
REMARK  status: ('A' for Active; 'I' for Inactive)
REMARK    1  A    between atoms: C1_1  and  O1_2 
REMARK    2  A    between atoms: O1_2  and  C2_3 
REMARK    3  A    between atoms: C2_3  and  C3_5 
REMARK    4  A    between atoms: C4_6  and  C5_7 
REMARK    5  A    between atoms: C5_7  and  O3_8 
ROOT
ATOM      1  C2  <0> d          -0.017   1.428   0.010  0.00  0.00     0.338 C 
ATOM      2  O2  <0> d           1.027   2.050   0.003  0.00  0.00    -0.249 OA
ENDROOT
BRANCH   1   3
ATOM      3  O1  <0> d          -1.194   2.086   0.019  0.00  0.00    -0.316 OA
BRANCH   3   4
ATOM      4  C1  <0> d          -1.137   3.537   0.027  0.00  0.00     0.014 C 
ATOM      5  H1  <0> d          -0.606   3.875   0.916  0.00  0.00     0.067 H 
ATOM      6  H2  <0> d          -0.614   3.885  -0.864  0.00  0.00     0.067 H 
ATOM      7  H3  <0> d          -2.150   3.940   0.034  0.00  0.00     0.067 H 
ENDBRANCH   3   4
ENDBRANCH   1   3
BRANCH   1   8
ATOM      8  C3  <0> d           0.002  -0.004   0.002  0.00  0.00     0.004 C 
ATOM      9  C4  <0> d           0.018  -1.178  -0.004  0.00  0.00    -0.070 C 
BRANCH   9  10
ATOM     10  C5  <0> d           0.038  -2.650  -0.013  0.00  0.00     0.072 C 
ATOM     11  H4  <0> d           0.548  -3.001  -0.909  0.00  0.00     0.093 H 
ATOM     12  H5  <0> d           0.565  -3.011   0.871  0.00  0.00     0.093 H 
BRANCH  10  13
ATOM     13  O3  <0> d          -1.303  -3.144  -0.002  0.00  0.00    -0.389 OA
ATOM     14  H6  <0> d          -1.366  -4.109  -0.007  0.00  0.00     0.210 HD
ENDBRANCH  10  13
ENDBRANCH   9  10
ENDBRANCH   1   8
TORSDOF 5
