REMARK  1 active torsions:
REMARK  status: ('A' for Active; 'I' for Inactive)
REMARK    1  A    between atoms: C3_3  and  N3_11 
ROOT
ATOM      1  C1  <0> d          -0.017   1.389   0.010  0.00  0.00    -0.051 A 
ATOM      2  C2  <0> d           1.188   2.062   0.002  0.00  0.00    -0.037 A 
ATOM      3  C3  <0> d           2.381   1.340  -0.013  0.00  0.00     0.121 A 
ATOM      4  N1  <0> d           2.379   0.019  -0.021  0.00  0.00    -0.230 NA
ATOM      5  C4  <0> d           1.240  -0.671  -0.013  0.00  0.00     0.087 A 
ATOM      6  C5  <0> d           0.002  -0.004   0.002  0.00  0.00     0.061 A 
ATOM      7  N2  <0> d          -0.983  -0.968   0.007  0.00  0.00    -0.364 N 
ATOM      8  H1  <0> d          -1.937  -0.790   0.017  0.00  0.00     0.165 HD
ATOM      9  C6  <0> d          -0.415  -2.210  -0.005  0.00  0.00    -0.020 A 
ATOM     10  C7  <0> d           0.924  -2.100  -0.018  0.00  0.00    -0.038 A 
ATOM     11  H2  <0> d          -0.952   1.929   0.017  0.00  0.00     0.087 H 
ATOM     12  H3  <0> d           1.207   3.142   0.007  0.00  0.00     0.089 H 
ATOM     13  H4  <0> d          -0.961  -3.141  -0.005  0.00  0.00     0.111 H 
ATOM     14  H5  <0> d           1.634  -2.914  -0.029  0.00  0.00     0.089 H 
ENDROOT
BRANCH   3  15
ATOM     15  N3  <0> d           3.594   2.022  -0.021  0.00  0.00    -0.384 N 
ATOM     16  H6  <0> d           4.429   1.527  -0.032  0.00  0.00     0.157 HD
ATOM     17  H7  <0> d           3.606   2.992  -0.016  0.00  0.00     0.157 HD
ENDBRANCH   3  15
TORSDOF 1
