REMARK  3 active torsions:
REMARK  status: ('A' for Active; 'I' for Inactive)
REMARK    1  A    between atoms: C1_1  and  C2_2 
REMARK    2  A    between atoms: C2_2  and  O1_3 
REMARK    3  A    between atoms: O1_3  and  C3_4 
ROOT
ATOM      1  C3  <0> d          -1.498  -1.848   0.006  0.00  0.00     0.161 A 
ATOM      2  C4  <0> d          -2.671  -2.521   0.008  0.00  0.00     0.052 A 
ATOM      3  N1  <0> d          -2.398  -3.836   0.001  0.00  0.00    -0.252 NA
ATOM      4  C5  <0> d          -1.105  -4.008  -0.005  0.00  0.00     0.065 A 
ATOM      5  N2  <0> d          -0.503  -2.788  -0.008  0.00  0.00    -0.330 N 
ATOM      6  H6  <0> d          -3.656  -2.079   0.014  0.00  0.00     0.121 H 
ATOM      7  H7  <0> d          -0.597  -4.961  -0.012  0.00  0.00     0.143 H 
ATOM      8  H8  <0> d           0.452  -2.617  -0.016  0.00  0.00     0.168 HD
ENDROOT
BRANCH   1   9
ATOM      9  O1  <0> d          -1.339  -0.499   0.012  0.00  0.00    -0.335 OA
BRANCH   9  10
ATOM     10  C2  <0> d           0.002  -0.004   0.002  0.00  0.00     0.024 C 
ATOM     11  H4  <0> d           0.512  -0.356  -0.895  0.00  0.00     0.074 H 
ATOM     12  H5  <0> d           0.529  -0.365   0.885  0.00  0.00     0.074 H 
BRANCH  10  13
ATOM     13  C1  <0> d          -0.019   1.526   0.010  0.00  0.00    -0.056 C 
ATOM     14  H1  <0> d           1.004   1.903   0.003  0.00  0.00     0.030 H 
ATOM     15  H2  <0> d          -0.546   1.887  -0.873  0.00  0.00     0.030 H 
ATOM     16  H3  <0> d          -0.529   1.877   0.907  0.00  0.00     0.030 H 
ENDBRANCH  10  13
ENDBRANCH   9  10
ENDBRANCH   1   9
TORSDOF 3
