REMARK  2 active torsions:
REMARK  status: ('A' for Active; 'I' for Inactive)
REMARK    1  A    between atoms: C4_4  and  C6_6 
REMARK    2  A    between atoms: C4_4  and  O2_8 
ROOT
ATOM      1  C1  <0> d           0.110   3.297  -1.637  0.00  0.00    -0.062 C 
ATOM      2  C2  <0> d           1.563   2.889  -1.287  0.00  0.00    -0.062 C 
ATOM      3  C3  <0> d           1.420   2.050  -0.001  0.00  0.00    -0.026 C 
ATOM      4  C4  <0> d          -0.018   1.503   0.010  0.00  0.00     0.145 C 
ATOM      5  C5  <0> d          -0.700   2.029  -1.270  0.00  0.00    -0.026 C 
ATOM      6  H1  <0> d          -0.208   4.147  -1.033  0.00  0.00     0.033 H 
ATOM      7  H2  <0> d           0.018   3.524  -2.699  0.00  0.00     0.033 H 
ATOM      8  H3  <0> d           2.173   3.772  -1.100  0.00  0.00     0.033 H 
ATOM      9  H4  <0> d           1.994   2.289  -2.088  0.00  0.00     0.033 H 
ATOM     10  H5  <0> d           1.588   2.677   0.875  0.00  0.00     0.038 H 
ATOM     11  H6  <0> d           2.133   1.225  -0.012  0.00  0.00     0.038 H 
ATOM     12  H7  <0> d          -0.634   1.290  -2.068  0.00  0.00     0.038 H 
ATOM     13  H8  <0> d          -1.740   2.285  -1.071  0.00  0.00     0.038 H 
ENDROOT
BRANCH   4  14
ATOM     14  C6  <0> d           0.002  -0.004   0.002  0.00  0.00     0.209 C 
ATOM     15  O1  <0> d           0.954  -0.593  -0.453  0.00  0.00    -0.646 OA
ATOM     16  O3  <0> d          -1.038  -0.692   0.500  0.00  0.00    -0.646 OA
ENDBRANCH   4  14
BRANCH   4  17
ATOM     17  O2  <0> d          -0.713   1.976   1.166  0.00  0.00    -0.379 OA
ATOM     18  H9  <0> d          -1.630   1.674   1.224  0.00  0.00     0.211 HD
ENDBRANCH   4  17
TORSDOF 2
