REMARK  1 active torsions:
REMARK  status: ('A' for Active; 'I' for Inactive)
REMARK    1  A    between atoms: C7_9  and  N3_11 
ROOT
ATOM      1  C1  <0> d           0.002  -0.004   0.002  0.00  0.00    -0.080 A 
ATOM      2  C2  <0> d          -0.016   1.360   0.009  0.00  0.00    -0.071 A 
ATOM      3  C3  <0> d           1.190   2.070   0.002  0.00  0.00    -0.003 A 
ATOM      4  C4  <0> d           1.244   3.475   0.009  0.00  0.00     0.034 A 
ATOM      5  N1  <0> d           2.418   4.066   0.002  0.00  0.00    -0.162 NA
ATOM      6  N2  <0> d           3.528   3.426  -0.012  0.00  0.00    -0.162 NA
ATOM      7  C5  <0> d           3.607   2.114  -0.021  0.00  0.00     0.037 A 
ATOM      8  C6  <0> d           2.422   1.363  -0.014  0.00  0.00     0.021 A 
ATOM      9  C7  <0> d           2.412  -0.045  -0.021  0.00  0.00     0.038 A 
ATOM     10  C8  <0> d           1.201  -0.709  -0.013  0.00  0.00    -0.057 A 
ATOM     11  H1  <0> d          -0.932  -0.547   0.008  0.00  0.00     0.083 H 
ATOM     12  H2  <0> d          -0.958   1.889   0.017  0.00  0.00     0.084 H 
ATOM     13  H3  <0> d           0.336   4.060   0.021  0.00  0.00     0.118 H 
ATOM     14  H4  <0> d           4.568   1.622  -0.032  0.00  0.00     0.118 H 
ATOM     15  H5  <0> d           1.185  -1.788  -0.018  0.00  0.00     0.086 H 
ENDROOT
BRANCH   9  16
ATOM     16  N3  <0> d           3.607  -0.759  -0.037  0.00  0.00    -0.398 N 
ATOM     17  H6  <0> d           3.593  -1.729  -0.042  0.00  0.00     0.156 HD
ATOM     18  H7  <0> d           4.454  -0.286  -0.042  0.00  0.00     0.156 HD
ENDBRANCH   9  16
TORSDOF 1
