REMARK  0 active torsions:
REMARK  status: ('A' for Active; 'I' for Inactive)
ROOT
ATOM      1  C1  <0> d           0.002  -0.004   0.002  0.00  0.00    -0.082 A 
ATOM      2  C2  <0> d           1.206  -0.687  -0.013  0.00  0.00    -0.080 A 
ATOM      3  C3  <0> d           2.404   0.005  -0.020  0.00  0.00    -0.050 A 
ATOM      4  C4  <0> d           2.401   1.388  -0.012  0.00  0.00     0.079 A 
ATOM      5  C5  <0> d           1.184   2.082   0.002  0.00  0.00    -0.003 A 
ATOM      6  C6  <0> d          -0.017   1.377   0.010  0.00  0.00    -0.070 A 
ATOM      7  C7  <0> d           1.203   3.556   0.009  0.00  0.00    -0.074 C 
ATOM      8  C8  <0> d           1.965   4.208  -0.870  0.00  0.00    -0.100 C 
ATOM      9  C9  <0> d           2.749   3.421  -1.889  0.00  0.00    -0.029 C 
ATOM     10  C10 <0> d           3.937   2.719  -1.239  0.00  0.00     0.029 C 
ATOM     11  O1  <0> d           3.562   2.091  -0.019  0.00  0.00    -0.350 OA
ATOM     12  H1  <0> d          -0.927  -0.554   0.008  0.00  0.00     0.083 H 
ATOM     13  H2  <0> d           1.210  -1.767  -0.019  0.00  0.00     0.083 H 
ATOM     14  H3  <0> d           3.340  -0.534  -0.031  0.00  0.00     0.087 H 
ATOM     15  H4  <0> d          -0.958   1.907   0.017  0.00  0.00     0.084 H 
ATOM     16  H5  <0> d           0.604   4.105   0.720  0.00  0.00     0.084 H 
ATOM     17  H6  <0> d           2.019   5.287  -0.853  0.00  0.00     0.076 H 
ATOM     18  H7  <0> d           3.113   4.097  -2.663  0.00  0.00     0.042 H 
ATOM     19  H8  <0> d           2.097   2.675  -2.343  0.00  0.00     0.042 H 
ATOM     20  H9  <0> d           4.718   3.452  -1.038  0.00  0.00     0.075 H 
ATOM     21  H10 <0> d           4.323   1.964  -1.924  0.00  0.00     0.075 H 
ENDROOT
TORSDOF 0
