REMARK  2 active torsions:
REMARK  status: ('A' for Active; 'I' for Inactive)
REMARK    1  A    between atoms: C1_1  and  C2_2 
REMARK    2  A    between atoms: C6_7  and  N2_8 
ROOT
ATOM      1  C2  <0> d          -0.017   1.383   0.010  0.00  0.00    -0.030 A 
ATOM      2  C3  <0> d           0.002  -0.004   0.002  0.00  0.00    -0.058 A 
ATOM      3  C4  <0> d           1.216  -0.663  -0.013  0.00  0.00     0.006 A 
ATOM      4  N1  <0> d           2.352   0.007  -0.021  0.00  0.00    -0.231 NA
ATOM      5  C5  <0> d           2.381   1.326  -0.014  0.00  0.00     0.236 A 
ATOM      6  C6  <0> d           1.198   2.060   0.002  0.00  0.00     0.090 A 
ATOM      7  F1  <0> d           3.568   1.970  -0.023  0.00  0.00    -0.182 F 
ATOM      8  H4  <0> d          -0.922  -0.562   0.007  0.00  0.00     0.086 H 
ATOM      9  H5  <0> d           1.234  -1.743  -0.019  0.00  0.00     0.114 H 
ENDROOT
BRANCH   1  10
ATOM     10  C1  <0> d          -1.321   2.137   0.020  0.00  0.00    -0.049 C 
ATOM     11  H1  <0> d          -1.631   2.313   1.050  0.00  0.00     0.033 H 
ATOM     12  H2  <0> d          -1.193   3.092  -0.489  0.00  0.00     0.033 H 
ATOM     13  H3  <0> d          -2.084   1.551  -0.493  0.00  0.00     0.033 H 
ENDBRANCH   1  10
BRANCH   6  14
ATOM     14  N2  <0> d           1.230   3.459   0.008  0.00  0.00    -0.395 N 
ATOM     15  H6  <0> d           0.402   3.963   0.019  0.00  0.00     0.156 HD
ATOM     16  H7  <0> d           2.081   3.924   0.003  0.00  0.00     0.156 HD
ENDBRANCH   6  14
TORSDOF 2
