REMARK  0 active torsions:
REMARK  status: ('A' for Active; 'I' for Inactive)
ROOT
ATOM      1  C1  <0> d          -0.017   1.362   0.009  0.00  0.00    -0.082 A 
ATOM      2  C2  <0> d           1.169   2.083   0.002  0.00  0.00    -0.080 A 
ATOM      3  C3  <0> d           2.386   1.434  -0.013  0.00  0.00    -0.049 A 
ATOM      4  C4  <0> d           2.429   0.046  -0.021  0.00  0.00     0.089 A 
ATOM      5  C5  <0> d           1.226  -0.681  -0.013  0.00  0.00    -0.002 A 
ATOM      6  C6  <0> d           0.002  -0.004   0.002  0.00  0.00    -0.070 A 
ATOM      7  C7  <0> d           1.280  -2.146  -0.022  0.00  0.00    -0.065 A 
ATOM      8  C8  <0> d           2.499  -2.742  -0.037  0.00  0.00    -0.009 A 
ATOM      9  C9  <0> d           3.667  -1.950  -0.044  0.00  0.00     0.288 A 
ATOM     10  O1  <0> d           4.755  -2.497  -0.057  0.00  0.00    -0.260 OA
ATOM     11  O2  <0> d           3.610  -0.609  -0.036  0.00  0.00    -0.275 OA
ATOM     12  H1  <0> d          -0.961   1.885   0.026  0.00  0.00     0.083 H 
ATOM     13  H2  <0> d           1.139   3.162   0.008  0.00  0.00     0.083 H 
ATOM     14  H3  <0> d           3.304   2.004  -0.019  0.00  0.00     0.087 H 
ATOM     15  H4  <0> d          -0.924  -0.559   0.008  0.00  0.00     0.084 H 
ATOM     16  H5  <0> d           0.374  -2.734  -0.016  0.00  0.00     0.085 H 
ATOM     17  H6  <0> d           2.575  -3.819  -0.043  0.00  0.00     0.092 H 
ENDROOT
TORSDOF 0
