REMARK  1 active torsions:
REMARK  status: ('A' for Active; 'I' for Inactive)
REMARK    1  A    between atoms: C3_3  and  N2_9 
ROOT
ATOM      1  C1  <0> d           0.029   4.075   0.024  0.00  0.00     0.045 A 
ATOM      2  C2  <0> d          -1.193   3.433   0.032  0.00  0.00     0.163 A 
ATOM      3  C3  <0> d          -1.227   2.038   0.019  0.00  0.00     0.110 A 
ATOM      4  C4  <0> d          -0.016   1.347   0.009  0.00  0.00     0.203 A 
ATOM      5  C5  <0> d           1.167   2.065   0.002  0.00  0.00     0.251 A 
ATOM      6  N1  <0> d           1.156   3.386   0.009  0.00  0.00    -0.227 NA
ATOM      7  F1  <0> d           2.347   1.407  -0.013  0.00  0.00    -0.181 F 
ATOM      8  F2  <0> d           0.002  -0.004   0.002  0.00  0.00    -0.199 F 
ATOM      9  F3  <0> d          -2.340   4.146   0.047  0.00  0.00    -0.202 F 
ATOM     10  H1  <0> d           0.065   5.154   0.029  0.00  0.00     0.119 H 
ENDROOT
BRANCH   3  11
ATOM     11  N2  <0> d          -2.442   1.352   0.021  0.00  0.00    -0.394 N 
ATOM     12  H2  <0> d          -2.452   0.382   0.016  0.00  0.00     0.156 HD
ATOM     13  H3  <0> d          -3.277   1.845   0.027  0.00  0.00     0.156 HD
ENDBRANCH   3  11
TORSDOF 1
