REMARK  4 active torsions:
REMARK  status: ('A' for Active; 'I' for Inactive)
REMARK    1  A    between atoms: C1_1  and  C2_2 
REMARK    2  A    between atoms: C2_2  and  C3_3 
REMARK    3  A    between atoms: C3_3  and  C4_5 
REMARK    4  A    between atoms: C3_3  and  O1_11 
ROOT
ATOM      1  C4  <0> d          -2.188   1.063  -1.221  0.00  0.00    -0.029 C 
ATOM      2  C5  <0> d          -0.753   1.593  -1.232  0.00  0.00    -0.059 C 
ATOM      3  C6  <0> d          -0.013   1.086   0.008  0.00  0.00    -0.065 C 
ATOM      4  C7  <0> d          -0.729   1.579   1.267  0.00  0.00    -0.065 C 
ATOM      5  C8  <0> d          -2.164   1.050   1.278  0.00  0.00    -0.065 C 
ATOM      6  C9  <0> d          -2.904   1.556   0.038  0.00  0.00    -0.059 C 
ATOM      7  H7  <0> d          -2.173  -0.037  -1.227  0.00  0.00     0.043 H 
ATOM      8  H8  <0> d          -0.238   1.238  -2.136  0.00  0.00     0.033 H 
ATOM      9  H9  <0> d          -0.768   2.693  -1.225  0.00  0.00     0.033 H 
ATOM     10  H10 <0> d           0.002  -0.014   0.002  0.00  0.00     0.033 H 
ATOM     11  H11 <0> d           1.019   1.466   0.000  0.00  0.00     0.033 H 
ATOM     12  H12 <0> d          -0.197   1.215   2.158  0.00  0.00     0.033 H 
ATOM     13  H13 <0> d          -0.744   2.679   1.273  0.00  0.00     0.033 H 
ATOM     14  H14 <0> d          -2.149  -0.050   1.272  0.00  0.00     0.033 H 
ATOM     15  H15 <0> d          -2.679   1.405   2.183  0.00  0.00     0.033 H 
ATOM     16  H16 <0> d          -2.919   2.656   0.044  0.00  0.00     0.033 H 
ATOM     17  H17 <0> d          -3.936   1.176   0.046  0.00  0.00     0.033 H 
ENDROOT
BRANCH   1  18
ATOM     18  C3  <0> d          -2.928   1.570  -2.460  0.00  0.00     0.038 C 
ATOM     19  H1  <0> d          -2.404   1.282  -3.383  0.00  0.00     0.083 H 
BRANCH  18  20
ATOM     20  C2  <0> d          -4.364   1.040  -2.449  0.00  0.00    -0.044 C 
ATOM     21  H5  <0> d          -4.905   1.467  -1.592  0.00  0.00     0.036 H 
ATOM     22  H6  <0> d          -4.349  -0.056  -2.365  0.00  0.00     0.036 H 
BRANCH  20  23
ATOM     23  C1  <0> d          -5.065   1.443  -3.748  0.00  0.00    -0.074 C 
ATOM     24  H2  <0> d          -6.097   1.062  -3.740  0.00  0.00     0.027 H 
ATOM     25  H3  <0> d          -4.524   1.016  -4.605  0.00  0.00     0.027 H 
ATOM     26  H4  <0> d          -5.080   2.539  -3.832  0.00  0.00     0.027 H 
ENDBRANCH  20  23
ENDBRANCH  18  20
BRANCH  18  27
ATOM     27  O1  <0> d          -2.947   2.999  -2.452  0.00  0.00    -0.395 OA
ATOM     28  H18 <0> d          -2.002   3.562  -2.458  0.00  0.00     0.210 HD
ENDBRANCH  18  27
ENDBRANCH   1  18
TORSDOF 4
