REMARK  3 active torsions:
REMARK  status: ('A' for Active; 'I' for Inactive)
REMARK    1  A    between atoms: C1_1  and  C2_2 
REMARK    2  A    between atoms: N3_8  and  N4_9 
REMARK    3  A    between atoms: N4_9  and  C4_10 
ROOT
ATOM      1  C2  <0> d          -1.726   2.444  -0.962  0.00  0.00     0.142 A 
ATOM      2  N1  <0> d          -2.196   2.658  -2.148  0.00  0.00    -0.156 NA
ATOM      3  N2  <0> d          -1.515   1.823  -3.045  0.00  0.00    -0.226 N 
ATOM      4  H1  <0> d          -1.660   1.767  -4.002  0.00  0.00     0.194 HD
ATOM      5  C3  <0> d          -0.619   1.111  -2.329  0.00  0.00     0.359 A 
ATOM      6  O1  <0> d           0.156   0.280  -2.766  0.00  0.00    -0.243 OA
ATOM      7  N3  <0> d          -0.741   1.490  -1.041  0.00  0.00    -0.211 N 
ENDROOT
BRANCH   7   8
ATOM      8  N4  <0> d          -0.012   1.005   0.008  0.00  0.00    -0.232 NA
ATOM      9  H5  <0> d           0.002  -0.004   0.002  0.00  0.00     0.146 HD
BRANCH   8  10
ATOM     10  C4  <0> d           1.353   1.550  -0.003  0.00  0.00    -0.017 C 
ATOM     11  H6  <0> d           1.849   1.271  -0.932  0.00  0.00     0.050 H 
ATOM     12  H7  <0> d           1.310   2.636   0.075  0.00  0.00     0.050 H 
ATOM     13  H8  <0> d           1.911   1.147   0.843  0.00  0.00     0.050 H 
ENDBRANCH   8  10
ENDBRANCH   7   8
BRANCH   1  14
ATOM     14  C1  <0> d          -2.184   3.130   0.300  0.00  0.00    -0.018 C 
ATOM     15  H2  <0> d          -1.593   4.032   0.457  0.00  0.00     0.038 H 
ATOM     16  H3  <0> d          -3.236   3.396   0.207  0.00  0.00     0.038 H 
ATOM     17  H4  <0> d          -2.052   2.457   1.147  0.00  0.00     0.038 H 
ENDBRANCH   1  14
TORSDOF 3
