REMARK  1 active torsions:
REMARK  status: ('A' for Active; 'I' for Inactive)
REMARK    1  A    between atoms: C3_7  and  N4_9 
ROOT
ATOM      1  C1  <0> d          -0.016   1.305   0.009  0.00  0.00     0.061 A 
ATOM      2  N1  <0> d           1.145   1.997   0.002  0.00  0.00    -0.302 N 
ATOM      3  H1  <0> d           1.135   2.967   0.007  0.00  0.00     0.171 HD
ATOM      4  C2  <0> d           2.317   1.330  -0.013  0.00  0.00     0.362 A 
ATOM      5  O1  <0> d           3.372   1.942  -0.019  0.00  0.00    -0.244 OA
ATOM      6  N2  <0> d           2.316  -0.006  -0.020  0.00  0.00    -0.006 NA
ATOM      7  C3  <0> d           1.167  -0.667  -0.013  0.00  0.00     0.703 A 
ATOM      8  N3  <0> d           0.002  -0.004   0.002  0.00  0.00    -0.186 N 
ATOM      9  H4  <0> d          -0.958   1.833   0.026  0.00  0.00     0.141 H 
ATOM     10  H5  <0> d          -0.833  -0.497   0.008  0.00  0.00     0.185 HD
ENDROOT
BRANCH   7  11
ATOM     11  N4  <0> d           1.170  -2.040  -0.020  0.00  0.00    -0.233 N 
ATOM     12  H2  <0> d           2.011  -2.523  -0.031  0.00  0.00     0.174 HD
ATOM     13  H3  <0> d           0.331  -2.527  -0.015  0.00  0.00     0.174 HD
ENDBRANCH   7  11
TORSDOF 1
