REMARK  2 active torsions:
REMARK  status: ('A' for Active; 'I' for Inactive)
REMARK    1  A    between atoms: C1_1  and  C2_2 
REMARK    2  A    between atoms: C2_2  and  C5_8 
ROOT
ATOM      1  C2  <0> d           0.002  -0.004   0.002  0.00  0.00     0.043 A 
ATOM      2  C3  <0> d           0.675  -0.529  -1.281  0.00  0.00     0.019 A 
ATOM      3  N1  <0> d          -0.391  -1.303  -1.942  0.00  0.00    -0.341 N 
ATOM      4  C4  <0> d          -1.500  -1.256  -1.193  0.00  0.00     0.316 A 
ATOM      5  O1  <0> d          -2.535  -1.813  -1.504  0.00  0.00    -0.247 OA
ATOM      6  N2  <0> d          -1.366  -0.538  -0.070  0.00  0.00    -0.333 N 
ATOM      7  H4  <0> d           0.994   0.300  -1.913  0.00  0.00     0.067 H 
ATOM      8  H5  <0> d           1.520  -1.171  -1.035  0.00  0.00     0.067 H 
ATOM      9  H6  <0> d          -0.303  -1.774  -2.786  0.00  0.00     0.164 HD
ATOM     10  H7  <0> d          -2.061  -0.395   0.592  0.00  0.00     0.165 HD
ENDROOT
BRANCH   1  11
ATOM     11  C1  <0> d          -0.019   1.526   0.010  0.00  0.00    -0.052 C 
ATOM     12  H1  <0> d           1.004   1.903   0.003  0.00  0.00     0.030 H 
ATOM     13  H2  <0> d          -0.546   1.887  -0.873  0.00  0.00     0.030 H 
ATOM     14  H3  <0> d          -0.529   1.877   0.907  0.00  0.00     0.030 H 
ENDBRANCH   1  11
BRANCH   1  15
ATOM     15  C5  <0> d           0.723  -0.537   1.242  0.00  0.00    -0.052 C 
ATOM     16  H8  <0> d           0.212  -0.184   2.138  0.00  0.00     0.030 H 
ATOM     17  H9  <0> d           0.717  -1.627   1.226  0.00  0.00     0.030 H 
ATOM     18  H10 <0> d           1.752  -0.179   1.246  0.00  0.00     0.030 H 
ENDBRANCH   1  15
TORSDOF 2
