REMARK  3 active torsions:
REMARK  status: ('A' for Active; 'I' for Inactive)
REMARK    1  A    between atoms: C1_1  and  C2_2 
REMARK    2  A    between atoms: C2_2  and  C3_3 
REMARK    3  A    between atoms: C6_6  and  O1_9 
ROOT
ATOM      1  C3  <0> d           2.378   1.343  -0.014  0.00  0.00     0.035 A 
ATOM      2  C4  <0> d           1.209   2.076   0.002  0.00  0.00    -0.036 A 
ATOM      3  C5  <0> d          -0.017   1.400   0.010  0.00  0.00     0.081 A 
ATOM      4  C6  <0> d           0.002  -0.004   0.002  0.00  0.00     0.103 A 
ATOM      5  C7  <0> d           1.226  -0.657  -0.013  0.00  0.00     0.036 A 
ATOM      6  N1  <0> d           2.354   0.024  -0.021  0.00  0.00    -0.263 NA
ATOM      7  C8  <0> d          -1.255   2.120   0.020  0.00  0.00     0.102 C 
ATOM      8  N2  <0> d          -2.237   2.692   0.027  0.00  0.00    -0.191 NA
ATOM      9  H6  <0> d           1.240   3.155   0.007  0.00  0.00     0.089 H 
ATOM     10  H7  <0> d           1.255  -1.736  -0.019  0.00  0.00     0.119 H 
ENDROOT
BRANCH   4  11
ATOM     11  O1  <0> d          -1.157  -0.710   0.010  0.00  0.00    -0.358 OA
ATOM     12  H8  <0> d          -1.502  -0.910  -0.871  0.00  0.00     0.217 HD
ENDBRANCH   4  11
BRANCH   1  13
ATOM     13  C2  <0> d           3.703   2.060  -0.023  0.00  0.00    -0.028 C 
ATOM     14  H4  <0> d           4.220   1.857  -0.960  0.00  0.00     0.041 H 
ATOM     15  H5  <0> d           3.536   3.133   0.074  0.00  0.00     0.041 H 
BRANCH  13  16
ATOM     16  C1  <0> d           4.557   1.569   1.148  0.00  0.00    -0.071 C 
ATOM     17  H1  <0> d           4.724   0.497   1.051  0.00  0.00     0.028 H 
ATOM     18  H2  <0> d           5.515   2.088   1.142  0.00  0.00     0.028 H 
ATOM     19  H3  <0> d           4.039   1.773   2.086  0.00  0.00     0.028 H 
ENDBRANCH  13  16
ENDBRANCH   1  13
TORSDOF 3
