REMARK  2 active torsions:
REMARK  status: ('A' for Active; 'I' for Inactive)
REMARK    1  A    between atoms: C3_3  and  C6_7 
REMARK    2  A    between atoms: C6_7  and  N3_11 
ROOT
ATOM      1  C6  <0> d          -0.018   1.468   0.010  0.00  0.00     0.238 C 
ATOM      2  H1  <0> d          -0.532   1.822  -0.896  0.00  0.00     0.119 H 
ATOM      3  C7  <0> d           0.002  -0.004   0.002  0.00  0.00     0.100 C 
ATOM      4  N2  <0> d           0.018  -1.140  -0.004  0.00  0.00    -0.195 NA
ENDROOT
BRANCH   1   5
ATOM      5  C3  <0> d          -0.723   1.954   1.250  0.00  0.00     0.006 A 
ATOM      6  C2  <0> d          -2.044   2.371   1.188  0.00  0.00    -0.071 A 
ATOM      7  C1  <0> d          -2.654   2.805   2.356  0.00  0.00    -0.065 A 
ATOM      8  H3  <0> d          -2.586   2.355   0.254  0.00  0.00     0.084 H 
ATOM      9  C5  <0> d          -1.927   2.817   3.531  0.00  0.00     0.002 A 
ATOM     10  H2  <0> d          -3.683   3.133   2.345  0.00  0.00     0.085 H 
ATOM     11  N1  <0> d          -0.671   2.418   3.551  0.00  0.00    -0.272 NA
ATOM     12  H5  <0> d          -2.394   3.158   4.443  0.00  0.00     0.114 H 
ATOM     13  C4  <0> d          -0.060   1.994   2.462  0.00  0.00     0.011 A 
ATOM     14  H4  <0> d           0.970   1.675   2.518  0.00  0.00     0.115 H 
ENDBRANCH   1   5
BRANCH   1  15
ATOM     15  N3  <0> d           1.360   1.976  -0.000  0.00  0.00     0.100 N 
ATOM     16  H6  <0> d           1.875   1.621  -0.905  0.00  0.00     0.315 HD
ATOM     17  H7  <0> d           1.345   3.076   0.006  0.00  0.00     0.315 HD
ENDBRANCH   1  15
TORSDOF 2
