REMARK  5 active torsions:
REMARK  status: ('A' for Active; 'I' for Inactive)
REMARK    1  A    between atoms: C1_1  and  C2_2 
REMARK    2  A    between atoms: C2_2  and  C3_3 
REMARK    3  A    between atoms: C3_3  and  N1_4 
REMARK       I    between atoms: N1_4  and  C4_5 
REMARK       I    between atoms: C4_5  and  N2_7 
REMARK    4  A    between atoms: N2_7  and  C5_8 
REMARK    5  A    between atoms: C5_8  and  C6_9 
ROOT
ATOM      1  N1  <0> d           1.143   1.901   0.001  0.00  0.00    -0.343 N 
ATOM      2  C4  <0> d          -0.014   1.212   0.009  0.00  0.00     0.316 C 
ATOM      3  O1  <0> d           0.002  -0.004   0.002  0.00  0.00    -0.247 OA
ATOM      4  N2  <0> d          -1.191   1.870   0.018  0.00  0.00    -0.344 N 
ATOM      5  H8  <0> d           1.130   2.871   0.007  0.00  0.00     0.164 HD
ATOM      6  H9  <0> d          -1.204   2.840   0.023  0.00  0.00     0.164 HD
ENDROOT
BRANCH   1   7
ATOM      7  C3  <0> d           2.422   1.186  -0.015  0.00  0.00    -0.004 C 
ATOM      8  H6  <0> d           2.497   0.556   0.871  0.00  0.00     0.064 H 
ATOM      9  H7  <0> d           2.480   0.565  -0.909  0.00  0.00     0.064 H 
BRANCH   7  10
ATOM     10  C2  <0> d           3.571   2.196  -0.020  0.00  0.00    -0.053 C 
ATOM     11  H4  <0> d           3.497   2.827  -0.906  0.00  0.00     0.034 H 
ATOM     12  H5  <0> d           3.514   2.817   0.874  0.00  0.00     0.034 H 
BRANCH  10  13
ATOM     13  C1  <0> d           4.907   1.449  -0.037  0.00  0.00    -0.075 C 
ATOM     14  H1  <0> d           4.981   0.819   0.849  0.00  0.00     0.027 H 
ATOM     15  H2  <0> d           4.964   0.828  -0.931  0.00  0.00     0.027 H 
ATOM     16  H3  <0> d           5.725   2.169  -0.041  0.00  0.00     0.027 H 
ENDBRANCH  10  13
ENDBRANCH   7  10
ENDBRANCH   1   7
BRANCH   4  17
ATOM     17  C5  <0> d          -2.449   1.120   0.020  0.00  0.00    -0.006 C 
ATOM     18  H10 <0> d          -2.503   0.497  -0.873  0.00  0.00     0.063 H 
ATOM     19  H11 <0> d          -2.494   0.488   0.906  0.00  0.00     0.063 H 
BRANCH  17  20
ATOM     20  C6  <0> d          -3.626   2.098   0.031  0.00  0.00    -0.061 C 
ATOM     21  H12 <0> d          -3.572   2.721   0.924  0.00  0.00     0.029 H 
ATOM     22  H13 <0> d          -3.581   2.731  -0.856  0.00  0.00     0.029 H 
ATOM     23  H14 <0> d          -4.562   1.540   0.032  0.00  0.00     0.029 H 
ENDBRANCH  17  20
ENDBRANCH   4  17
TORSDOF 5
