REMARK  3 active torsions:
REMARK  status: ('A' for Active; 'I' for Inactive)
REMARK    1  A    between atoms: C1_1  and  O1_2 
REMARK    2  A    between atoms: O1_2  and  C2_3 
REMARK    3  A    between atoms: C4_6  and  O2_9 
ROOT
ATOM      1  C2  <0> d          -1.972   1.164   1.348  0.00  0.00     0.267 A 
ATOM      2  N1  <0> d          -2.539   0.402   0.427  0.00  0.00    -0.217 NA
ATOM      3  C3  <0> d          -3.795   0.006   0.556  0.00  0.00     0.040 A 
ATOM      4  C4  <0> d          -4.520   0.409   1.671  0.00  0.00     0.100 A 
ATOM      5  C5  <0> d          -3.891   1.213   2.615  0.00  0.00     0.040 A 
ATOM      6  N2  <0> d          -2.631   1.567   2.421  0.00  0.00    -0.217 NA
ATOM      7  H4  <0> d          -4.251  -0.620  -0.197  0.00  0.00     0.119 H 
ATOM      8  H5  <0> d          -4.424   1.546   3.493  0.00  0.00     0.119 H 
ENDROOT
BRANCH   1   9
ATOM      9  O1  <0> d          -0.682   1.547   1.184  0.00  0.00    -0.324 OA
BRANCH   9  10
ATOM     10  C1  <0> d          -0.013   1.086   0.008  0.00  0.00     0.013 C 
ATOM     11  H1  <0> d           1.019   1.467   0.000  0.00  0.00     0.067 H 
ATOM     12  H2  <0> d          -0.545   1.450  -0.883  0.00  0.00     0.067 H 
ATOM     13  H3  <0> d           0.002  -0.014   0.002  0.00  0.00     0.067 H 
ENDBRANCH   9  10
ENDBRANCH   1   9
BRANCH   4  14
ATOM     14  O2  <0> d          -5.815   0.025   1.836  0.00  0.00    -0.358 OA
ATOM     15  H6  <0> d          -6.377   0.351   2.724  0.00  0.00     0.217 HD
ENDBRANCH   4  14
TORSDOF 3
