REMARK  5 active torsions:
REMARK  status: ('A' for Active; 'I' for Inactive)
REMARK    1  A    between atoms: C1_1  and  C2_2 
REMARK    2  A    between atoms: C2_2  and  C3_4 
REMARK    3  A    between atoms: C2_2  and  N1_8 
REMARK    4  A    between atoms: C3_4  and  O2_6 
REMARK    5  A    between atoms: O2_6  and  C4_7 
ROOT
ATOM      1  C2  <0> d           0.657  -2.104  -1.120  0.00  0.00     0.115 C 
ATOM      2  H1  <0> d           1.195  -2.491  -0.254  0.00  0.00     0.091 H 
ENDROOT
BRANCH   1   3
ATOM      3  C1  <0> d          -0.764  -2.670  -1.133  0.00  0.00    -0.047 C 
ATOM      4  H2  <0> d          -1.301  -2.283  -1.999  0.00  0.00     0.031 H 
ATOM      5  H3  <0> d          -0.721  -3.758  -1.189  0.00  0.00     0.031 H 
ATOM      6  H4  <0> d          -1.282  -2.373  -0.221  0.00  0.00     0.031 H 
ENDBRANCH   1   3
BRANCH   1   7
ATOM      7  C3  <0> d           0.598  -0.600  -1.043  0.00  0.00     0.283 C 
ATOM      8  O1  <0> d           1.088   0.070  -1.921  0.00  0.00    -0.263 OA
BRANCH   7   9
ATOM      9  O2  <0> d           0.002  -0.004   0.002  0.00  0.00    -0.325 OA
BRANCH   9  10
ATOM     10  C4  <0> d          -0.018   1.448   0.010  0.00  0.00     0.013 C 
ATOM     11  H5  <0> d           1.005   1.825   0.002  0.00  0.00     0.067 H 
ATOM     12  H6  <0> d          -0.545   1.809  -0.873  0.00  0.00     0.067 H 
ATOM     13  H7  <0> d          -0.528   1.799   0.907  0.00  0.00     0.067 H 
ENDBRANCH   9  10
ENDBRANCH   7   9
ENDBRANCH   1   7
BRANCH   1  14
ATOM     14  N1  <0> d           1.354  -2.503  -2.345  0.00  0.00    -0.248 N 
ATOM     15  N3  <0> d           2.199  -3.613  -2.510  0.00  0.00    -0.164 NA
ATOM     16  C6  <0> d           2.605  -3.597  -3.752  0.00  0.00     0.107 A 
ATOM     17  N2  <0> d           2.065  -2.547  -4.370  0.00  0.00    -0.234 NA
ATOM     18  H9  <0> d           3.270  -4.318  -4.204  0.00  0.00     0.149 H 
ATOM     19  C5  <0> d           1.307  -1.883  -3.537  0.00  0.00     0.085 A 
ATOM     20  H8  <0> d           0.743  -0.991  -3.766  0.00  0.00     0.146 H 
ENDBRANCH   1  14
TORSDOF 5
