REMARK  0 active torsions:
REMARK  status: ('A' for Active; 'I' for Inactive)
ROOT
ATOM      1  C1  <0> d          -0.017   1.380   0.010  0.00  0.00    -0.005 A 
ATOM      2  C2  <0> d           1.172   2.089   0.002  0.00  0.00     0.122 A 
ATOM      3  C3  <0> d           2.381   1.414  -0.013  0.00  0.00    -0.005 A 
ATOM      4  C4  <0> d           2.402   0.030  -0.021  0.00  0.00     0.161 A 
ATOM      5  C5  <0> d           1.212  -0.680  -0.013  0.00  0.00     0.193 A 
ATOM      6  C6  <0> d           0.002  -0.004   0.002  0.00  0.00     0.161 A 
ATOM      7  F1  <0> d          -1.159  -0.696   0.010  0.00  0.00    -0.203 F 
ATOM      8  F2  <0> d           1.231  -2.031  -0.021  0.00  0.00    -0.200 F 
ATOM      9  F3  <0> d           3.582  -0.628  -0.037  0.00  0.00    -0.203 F 
ATOM     10  F4  <0> d           1.153   3.440   0.009  0.00  0.00    -0.206 F 
ATOM     11  H1  <0> d          -0.959   1.907   0.026  0.00  0.00     0.093 H 
ATOM     12  H2  <0> d           3.308   1.968  -0.020  0.00  0.00     0.093 H 
ENDROOT
TORSDOF 0
