REMARK  3 active torsions:
REMARK  status: ('A' for Active; 'I' for Inactive)
REMARK    1  A    between atoms: C1_1  and  C2_2 
REMARK    2  A    between atoms: C5_6  and  O1_8 
REMARK    3  A    between atoms: O1_8  and  C6_9 
ROOT
ATOM      1  C2  <0> d           3.104   2.412  -1.168  0.00  0.00     0.039 A 
ATOM      2  C3  <0> d           1.855   1.822  -1.207  0.00  0.00    -0.007 A 
ATOM      3  C4  <0> d           1.224   1.520  -0.002  0.00  0.00     0.183 A 
ATOM      4  N1  <0> d           1.842   1.806   1.139  0.00  0.00    -0.299 N 
ATOM      5  C5  <0> d           3.043   2.361   1.134  0.00  0.00     0.247 A 
ATOM      6  N2  <0> d           3.666   2.660   0.006  0.00  0.00    -0.214 NA
ATOM      7  O2  <0> d          -0.003   0.946   0.007  0.00  0.00    -0.172 OA
ATOM      8  H4  <0> d           1.424   1.622  -2.087  0.00  0.00     0.093 H 
ATOM      9  H8  <0> d           1.345   1.578   2.093  0.00  0.00     0.171 HD
ENDROOT
BRANCH   5  10
ATOM     10  O1  <0> d           3.650   2.630   2.315  0.00  0.00    -0.326 OA
BRANCH  10  11
ATOM     11  C6  <0> d           2.935   2.289   3.505  0.00  0.00     0.013 C 
ATOM     12  H5  <0> d           3.538   2.559   4.385  0.00  0.00     0.067 H 
ATOM     13  H6  <0> d           2.736   1.207   3.515  0.00  0.00     0.067 H 
ATOM     14  H7  <0> d           1.982   2.838   3.530  0.00  0.00     0.067 H 
ENDBRANCH  10  11
ENDBRANCH   5  10
BRANCH   1  15
ATOM     15  C1  <0> d           3.819   2.770  -2.445  0.00  0.00    -0.035 C 
ATOM     16  H1  <0> d           4.791   3.226  -2.206  0.00  0.00     0.035 H 
ATOM     17  H2  <0> d           3.210   3.484  -3.019  0.00  0.00     0.035 H 
ATOM     18  H3  <0> d           3.978   1.860  -3.043  0.00  0.00     0.035 H 
ENDBRANCH   1  15
TORSDOF 3
