REMARK  3 active torsions:
REMARK  status: ('A' for Active; 'I' for Inactive)
REMARK    1  A    between atoms: C1_1  and  C2_2 
REMARK    2  A    between atoms: C3_3  and  N2_9 
REMARK    3  A    between atoms: C7_7  and  N1_8 
ROOT
ATOM      1  C2  <0> d           0.002  -0.004   0.002  0.00  0.00    -0.010 A 
ATOM      2  C3  <0> d           0.006  -0.693  -1.203  0.00  0.00     0.034 A 
ATOM      3  C4  <0> d           0.025  -2.083  -1.207  0.00  0.00    -0.057 A 
ATOM      4  C5  <0> d           0.039  -2.778  -0.013  0.00  0.00    -0.079 A 
ATOM      5  C6  <0> d           0.035  -2.095   1.188  0.00  0.00    -0.057 A 
ATOM      6  C7  <0> d           0.023  -0.706   1.199  0.00  0.00     0.034 A 
ATOM      7  H4  <0> d           0.028  -2.619  -2.144  0.00  0.00     0.086 H 
ATOM      8  H5  <0> d           0.053  -3.858  -0.019  0.00  0.00     0.083 H 
ATOM      9  H6  <0> d           0.046  -2.642   2.119  0.00  0.00     0.086 H 
ENDROOT
BRANCH   1  10
ATOM     10  C1  <0> d          -0.018   1.503   0.010  0.00  0.00    -0.047 C 
ATOM     11  H1  <0> d           1.004   1.880   0.003  0.00  0.00     0.033 H 
ATOM     12  H2  <0> d          -0.545   1.864  -0.873  0.00  0.00     0.033 H 
ATOM     13  H3  <0> d          -0.529   1.854   0.907  0.00  0.00     0.033 H 
ENDBRANCH   1  10
BRANCH   6  14
ATOM     14  N1  <0> d           0.026  -0.016   2.414  0.00  0.00    -0.399 N 
ATOM     15  H7  <0> d           0.013   0.954   2.421  0.00  0.00     0.156 HD
ATOM     16  H8  <0> d           0.040  -0.507   3.250  0.00  0.00     0.156 HD
ENDBRANCH   6  14
BRANCH   2  17
ATOM     17  N2  <0> d          -0.010   0.010  -2.410  0.00  0.00    -0.399 N 
ATOM     18  H9  <0> d          -0.023   0.980  -2.406  0.00  0.00     0.156 HD
ATOM     19  H10 <0> d          -0.007  -0.472  -3.252  0.00  0.00     0.156 HD
ENDBRANCH   2  17
TORSDOF 3
