REMARK  5 active torsions:
REMARK  status: ('A' for Active; 'I' for Inactive)
REMARK    1  A    between atoms: C1_1  and  C2_2 
REMARK    2  A    between atoms: C2_2  and  O1_3 
REMARK    3  A    between atoms: O1_3  and  C3_4 
REMARK    4  A    between atoms: C3_4  and  C4_6 
REMARK    5  A    between atoms: C5_7  and  N2_11 
ROOT
ATOM      1  C3  <0> d          -1.497  -1.836   0.006  0.00  0.00     0.316 C 
ATOM      2  O2  <0> d          -0.524  -2.563  -0.007  0.00  0.00    -0.257 OA
ENDROOT
BRANCH   1   3
ATOM      3  O1  <0> d          -1.339  -0.499   0.012  0.00  0.00    -0.317 OA
BRANCH   3   4
ATOM      4  C2  <0> d           0.002  -0.004   0.002  0.00  0.00     0.026 C 
ATOM      5  H4  <0> d           0.512  -0.356  -0.895  0.00  0.00     0.074 H 
ATOM      6  H5  <0> d           0.529  -0.365   0.885  0.00  0.00     0.074 H 
BRANCH   4   7
ATOM      7  C1  <0> d          -0.019   1.526   0.010  0.00  0.00    -0.056 C 
ATOM      8  H1  <0> d           1.004   1.903   0.003  0.00  0.00     0.030 H 
ATOM      9  H2  <0> d          -0.546   1.887  -0.873  0.00  0.00     0.030 H 
ATOM     10  H3  <0> d          -0.529   1.877   0.907  0.00  0.00     0.030 H 
ENDBRANCH   4   7
ENDBRANCH   3   4
ENDBRANCH   1   3
BRANCH   1  11
ATOM     11  C4  <0> d          -2.857  -2.421   0.016  0.00  0.00     0.187 A 
ATOM     12  N1  <0> d          -3.991  -1.759   0.031  0.00  0.00    -0.120 NA
ATOM     13  O3  <0> d          -5.051  -2.696   0.033  0.00  0.00    -0.223 OA
ATOM     14  C6  <0> d          -4.541  -3.937   0.028  0.00  0.00     0.071 A 
ATOM     15  C5  <0> d          -3.192  -3.845   0.018  0.00  0.00     0.088 A 
ATOM     16  H6  <0> d          -5.112  -4.854   0.031  0.00  0.00     0.130 H 
BRANCH  15  17
ATOM     17  N2  <0> d          -2.285  -4.915   0.010  0.00  0.00    -0.395 N 
ATOM     18  H7  <0> d          -1.330  -4.741   0.002  0.00  0.00     0.156 HD
ATOM     19  H8  <0> d          -2.611  -5.828   0.011  0.00  0.00     0.156 HD
ENDBRANCH  15  17
ENDBRANCH   1  11
TORSDOF 5
