REMARK  4 active torsions:
REMARK  status: ('A' for Active; 'I' for Inactive)
REMARK    1  A    between atoms: C1_1  and  C2_2 
REMARK    2  A    between atoms: C5_5  and  C9_9 
REMARK    3  A    between atoms: C7_7  and  C8_8 
REMARK    4  A    between atoms: C9_9  and  C10_11 
ROOT
ATOM      1  C2  <0> d          -3.716   3.279   0.037  0.00  0.00    -0.056 A 
ATOM      2  C3  <0> d          -2.529   3.991   0.035  0.00  0.00    -0.076 A 
ATOM      3  C4  <0> d          -1.322   3.325   0.032  0.00  0.00    -0.069 A 
ATOM      4  C5  <0> d          -1.299   1.927   0.019  0.00  0.00     0.010 A 
ATOM      5  C6  <0> d          -2.502   1.215   0.021  0.00  0.00    -0.063 A 
ATOM      6  C7  <0> d          -3.702   1.895   0.030  0.00  0.00    -0.055 A 
ATOM      7  H4  <0> d          -2.549   5.071   0.041  0.00  0.00     0.084 H 
ATOM      8  H5  <0> d          -0.396   3.882   0.036  0.00  0.00     0.085 H 
ATOM      9  H6  <0> d          -2.493   0.135   0.015  0.00  0.00     0.085 H 
ENDROOT
BRANCH   4  10
ATOM     10  C9  <0> d          -0.014   1.208   0.009  0.00  0.00     0.155 C 
ATOM     11  O1  <0> d           0.002  -0.004   0.002  0.00  0.00    -0.293 OA
BRANCH  10  12
ATOM     12  C10 <0> d           1.280   1.980   0.001  0.00  0.00    -0.017 C 
ATOM     13  H10 <0> d           2.049   1.340  -0.010  0.00  0.00     0.038 H 
ATOM     14  H11 <0> d           1.321   2.612  -0.887  0.00  0.00     0.038 H 
ATOM     15  H12 <0> d           1.338   2.602   0.893  0.00  0.00     0.038 H 
ENDBRANCH  10  12
ENDBRANCH   4  10
BRANCH   6  16
ATOM     16  C8  <0> d          -5.000   1.130   0.032  0.00  0.00    -0.051 C 
ATOM     17  H7  <0> d          -5.308   0.940   1.060  0.00  0.00     0.033 H 
ATOM     18  H8  <0> d          -5.767   1.715  -0.475  0.00  0.00     0.033 H 
ATOM     19  H9  <0> d          -4.863   0.182  -0.488  0.00  0.00     0.033 H 
ENDBRANCH   6  16
BRANCH   1  20
ATOM     20  C1  <0> d          -5.031   4.015   0.046  0.00  0.00    -0.051 C 
ATOM     21  H1  <0> d          -5.344   4.187   1.076  0.00  0.00     0.033 H 
ATOM     22  H2  <0> d          -4.916   4.971  -0.463  0.00  0.00     0.033 H 
ATOM     23  H3  <0> d          -5.785   3.418  -0.468  0.00  0.00     0.033 H 
ENDBRANCH   1  20
TORSDOF 4
