REMARK  1 active torsions:
REMARK  status: ('A' for Active; 'I' for Inactive)
REMARK    1  A    between atoms: C1_1  and  C2_2 
ROOT
ATOM      1  C2  <0> d          -1.246   3.131   0.029  0.00  0.00    -0.061 A 
ATOM      2  C3  <0> d          -1.217   1.748   0.017  0.00  0.00    -0.075 A 
ATOM      3  C4  <0> d          -0.013   1.076   0.008  0.00  0.00    -0.056 A 
ATOM      4  C5  <0> d           1.186   1.788   0.000  0.00  0.00     0.041 A 
ATOM      5  C6  <0> d           1.143   3.176   0.008  0.00  0.00    -0.022 A 
ATOM      6  C7  <0> d          -0.061   3.844   0.022  0.00  0.00    -0.069 A 
ATOM      7  C8  <0> d           2.579   3.646  -0.003  0.00  0.00     0.035 A 
ATOM      8  C9  <0> d           3.385   2.364  -0.017  0.00  0.00     0.226 A 
ATOM      9  O1  <0> d           4.595   2.274  -0.028  0.00  0.00    -0.273 OA
ATOM     10  N1  <0> d           2.509   1.346  -0.014  0.00  0.00    -0.326 N 
ATOM     11  H4  <0> d          -2.143   1.191   0.019  0.00  0.00     0.084 H 
ATOM     12  H5  <0> d           0.002  -0.004   0.002  0.00  0.00     0.087 H 
ATOM     13  H6  <0> d          -0.080   4.924   0.028  0.00  0.00     0.085 H 
ATOM     14  H7  <0> d           2.798   4.225   0.894  0.00  0.00     0.054 H 
ATOM     15  H8  <0> d           2.784   4.235  -0.896  0.00  0.00     0.054 H 
ATOM     16  H9  <0> d           2.767   0.411  -0.021  0.00  0.00     0.169 HD
ENDROOT
BRANCH   1  17
ATOM     17  C1  <0> d          -2.566   3.858   0.045  0.00  0.00    -0.051 C 
ATOM     18  H1  <0> d          -2.894   4.039  -0.979  0.00  0.00     0.033 H 
ATOM     19  H2  <0> d          -3.309   3.251   0.562  0.00  0.00     0.033 H 
ATOM     20  H3  <0> d          -2.450   4.810   0.562  0.00  0.00     0.033 H 
ENDBRANCH   1  17
TORSDOF 1
