REMARK  3 active torsions:
REMARK  status: ('A' for Active; 'I' for Inactive)
REMARK    1  A    between atoms: C1_1  and  C2_2 
REMARK    2  A    between atoms: C2_2  and  N1_3 
REMARK    3  A    between atoms: N1_3  and  C3_4 
ROOT
ATOM      1  C3  <0> d           0.858  -1.855   1.400  0.00  0.00     0.125 A 
ATOM      2  C4  <0> d           0.336  -2.756   0.478  0.00  0.00    -0.039 A 
ATOM      3  C5  <0> d           0.489  -4.112   0.700  0.00  0.00    -0.076 A 
ATOM      4  C6  <0> d           1.163  -4.525   1.841  0.00  0.00    -0.044 A 
ATOM      5  C7  <0> d           1.657  -3.576   2.716  0.00  0.00     0.128 A 
ATOM      6  N2  <0> d           1.500  -2.287   2.475  0.00  0.00    -0.220 NA
ATOM      7 Cl1  <0> d           2.500  -4.085   4.145  0.00  0.00    -0.062 Cl
ATOM      8  H7  <0> d          -0.184  -2.400  -0.400  0.00  0.00     0.089 H 
ATOM      9  H8  <0> d           0.094  -4.835   0.001  0.00  0.00     0.083 H 
ATOM     10  H9  <0> d           1.300  -5.577   2.043  0.00  0.00     0.088 H 
ENDROOT
BRANCH   1  11
ATOM     11  N1  <0> d           0.711  -0.489   1.189  0.00  0.00    -0.375 N 
ATOM     12  H6  <0> d           1.077   0.142   1.827  0.00  0.00     0.161 HD
BRANCH  11  13
ATOM     13  C2  <0> d           0.002  -0.004   0.002  0.00  0.00    -0.009 C 
ATOM     14  H4  <0> d          -1.020  -0.381   0.010  0.00  0.00     0.063 H 
ATOM     15  H5  <0> d           0.512  -0.356  -0.895  0.00  0.00     0.063 H 
BRANCH  13  16
ATOM     16  C1  <0> d          -0.019   1.526   0.010  0.00  0.00    -0.061 C 
ATOM     17  H1  <0> d           1.004   1.903   0.003  0.00  0.00     0.029 H 
ATOM     18  H2  <0> d          -0.546   1.887  -0.873  0.00  0.00     0.029 H 
ATOM     19  H3  <0> d          -0.529   1.877   0.907  0.00  0.00     0.029 H 
ENDBRANCH  13  16
ENDBRANCH  11  13
ENDBRANCH   1  11
TORSDOF 3
