REMARK  8 active torsions:
REMARK  status: ('A' for Active; 'I' for Inactive)
REMARK    1  A    between atoms: C1_1  and  C2_2 
REMARK    2  A    between atoms: C2_2  and  C3_3 
REMARK    3  A    between atoms: C3_3  and  C4_4 
REMARK    4  A    between atoms: C4_4  and  C5_5 
REMARK    5  A    between atoms: C5_5  and  C6_6 
REMARK    6  A    between atoms: C7_7  and  C8_8 
REMARK    7  A    between atoms: C9_9  and  C10_10 
REMARK    8  A    between atoms: C10_10  and  O1_11 
ROOT
ATOM      1  C5  <0> d           4.414   3.179   3.633  0.00  0.00    -0.050 C 
ATOM      2  H10 <0> d           4.035   3.188   4.655  0.00  0.00     0.038 H 
ATOM      3  H11 <0> d           4.569   2.149   3.312  0.00  0.00     0.038 H 
ENDROOT
BRANCH   1   4
ATOM      4  C4  <0> d           5.742   3.937   3.575  0.00  0.00    -0.062 C 
ATOM      5  H8  <0> d           6.121   3.928   2.553  0.00  0.00     0.033 H 
ATOM      6  H9  <0> d           5.587   4.967   3.896  0.00  0.00     0.033 H 
BRANCH   4   7
ATOM      7  C3  <0> d           6.756   3.261   4.501  0.00  0.00    -0.065 C 
ATOM      8  H6  <0> d           6.377   3.270   5.523  0.00  0.00     0.033 H 
ATOM      9  H7  <0> d           6.911   2.231   4.180  0.00  0.00     0.033 H 
BRANCH   7  10
ATOM     10  C2  <0> d           8.084   4.019   4.442  0.00  0.00    -0.069 C 
ATOM     11  H4  <0> d           8.463   4.010   3.420  0.00  0.00     0.032 H 
ATOM     12  H5  <0> d           7.929   5.049   4.763  0.00  0.00     0.032 H 
BRANCH  10  13
ATOM     13  C1  <0> d           9.098   3.343   5.368  0.00  0.00    -0.077 C 
ATOM     14  H1  <0> d           9.253   2.313   5.047  0.00  0.00     0.027 H 
ATOM     15  H2  <0> d          10.044   3.883   5.326  0.00  0.00     0.027 H 
ATOM     16  H3  <0> d           8.719   3.352   6.390  0.00  0.00     0.027 H 
ENDBRANCH  10  13
ENDBRANCH   7  10
ENDBRANCH   4   7
ENDBRANCH   1   4
BRANCH   1  17
ATOM     17  C6  <0> d           3.416   3.845   2.722  0.00  0.00    -0.103 C 
ATOM     18  C7  <0> d           2.805   3.138   1.776  0.00  0.00    -0.087 C 
ATOM     19  H13 <0> d           3.025   2.087   1.661  0.00  0.00     0.083 H 
ATOM     20  H12 <0> d           3.196   4.896   2.837  0.00  0.00     0.076 H 
BRANCH  18  21
ATOM     21  C8  <0> d           1.830   3.788   0.886  0.00  0.00    -0.085 C 
ATOM     22  C9  <0> d           1.144   3.062   0.010  0.00  0.00    -0.081 C 
ATOM     23  H15 <0> d           0.501   3.548  -0.708  0.00  0.00     0.080 H 
ATOM     24  H14 <0> d           1.673   4.854   0.945  0.00  0.00     0.083 H 
BRANCH  22  25
ATOM     25  C10 <0> d           1.263   1.559   0.019  0.00  0.00     0.032 C 
ATOM     26  H16 <0> d           1.716   1.236   0.956  0.00  0.00     0.080 H 
ATOM     27  H17 <0> d           1.888   1.240  -0.815  0.00  0.00     0.080 H 
BRANCH  25  28
ATOM     28  O1  <0> d          -0.036   0.978  -0.109  0.00  0.00    -0.397 OA
ATOM     29  H18 <0> d          -0.035   0.011  -0.111  0.00  0.00     0.209 HD
ENDBRANCH  25  28
ENDBRANCH  22  25
ENDBRANCH  18  21
ENDBRANCH   1  17
TORSDOF 8
