REMARK  2 active torsions:
REMARK  status: ('A' for Active; 'I' for Inactive)
REMARK    1  A    between atoms: C1_1  and  C2_2 
REMARK    2  A    between atoms: C7_8  and  N4_11 
ROOT
ATOM      1  C2  <0> d           1.815  -1.527   0.130  0.00  0.00     0.032 A 
ATOM      2  C3  <0> d           3.130  -1.602   0.420  0.00  0.00    -0.060 A 
ATOM      3  C4  <0> d           3.933  -0.446   0.393  0.00  0.00    -0.077 A 
ATOM      4  C5  <0> d           3.381   0.754   0.073  0.00  0.00    -0.036 A 
ATOM      5  C6  <0> d           2.005   0.821  -0.229  0.00  0.00     0.173 A 
ATOM      6  N1  <0> d           1.244  -0.328  -0.194  0.00  0.00    -0.130 N 
ATOM      7  C7  <0> d          -0.021   0.055  -0.525  0.00  0.00     0.725 A 
ATOM      8  N2  <0> d           0.005   1.350  -0.740  0.00  0.00     0.044 NA
ATOM      9  N3  <0> d           1.196   1.807  -0.566  0.00  0.00    -0.115 NA
ATOM     10  H4  <0> d           3.570  -2.554   0.675  0.00  0.00     0.086 H 
ATOM     11  H5  <0> d           4.985  -0.512   0.626  0.00  0.00     0.083 H 
ATOM     12  H6  <0> d           3.989   1.646   0.050  0.00  0.00     0.089 H 
ENDROOT
BRANCH   1  13
ATOM     13  C1  <0> d           0.970  -2.774   0.164  0.00  0.00    -0.036 C 
ATOM     14  H1  <0> d           1.597  -3.635   0.441  0.00  0.00     0.035 H 
ATOM     15  H2  <0> d           0.530  -2.946  -0.830  0.00  0.00     0.035 H 
ATOM     16  H3  <0> d           0.166  -2.652   0.904  0.00  0.00     0.035 H 
ENDBRANCH   1  13
BRANCH   7  17
ATOM     17  N4  <0> d          -1.135  -0.774  -0.620  0.00  0.00    -0.231 N 
ATOM     18  H7  <0> d          -2.112  -0.352  -0.897  0.00  0.00     0.174 HD
ATOM     19  H8  <0> d          -1.039  -1.850  -0.417  0.00  0.00     0.174 HD
ENDBRANCH   7  17
TORSDOF 2
