REMARK  4 active torsions:
REMARK  status: ('A' for Active; 'I' for Inactive)
REMARK    1  A    between atoms: C1_1  and  C2_2 
REMARK    2  A    between atoms: C2_2  and  O1_3 
REMARK    3  A    between atoms: O1_3  and  C3_4 
REMARK    4  A    between atoms: C3_4  and  C4_6 
ROOT
ATOM      1  C3  <0> d          -1.432  -1.925   0.005  0.00  0.00     0.117 C 
ATOM      2  H1  <0> d          -0.573  -2.343  -0.519  0.00  0.00     0.106 H 
ATOM      3  C5  <0> d          -2.670  -2.332  -0.679  0.00  0.00     0.090 C 
ATOM      4  N1  <0> d          -3.625  -2.646  -1.207  0.00  0.00    -0.195 NA
ENDROOT
BRANCH   1   5
ATOM      5  O1  <0> d          -1.339  -0.499   0.012  0.00  0.00    -0.372 OA
BRANCH   5   6
ATOM      6  C2  <0> d           0.002  -0.004   0.002  0.00  0.00     0.018 C 
ATOM      7  H5  <0> d           0.512  -0.356  -0.895  0.00  0.00     0.073 H 
ATOM      8  H6  <0> d           0.529  -0.365   0.885  0.00  0.00     0.073 H 
BRANCH   6   9
ATOM      9  C1  <0> d          -0.019   1.526   0.010  0.00  0.00    -0.056 C 
ATOM     10  H2  <0> d           1.004   1.903   0.003  0.00  0.00     0.030 H 
ATOM     11  H3  <0> d          -0.546   1.887  -0.873  0.00  0.00     0.030 H 
ATOM     12  H4  <0> d          -0.529   1.877   0.907  0.00  0.00     0.030 H 
ENDBRANCH   6   9
ENDBRANCH   5   6
ENDBRANCH   1   5
BRANCH   1  13
ATOM     13  C4  <0> d          -1.452  -2.441   1.445  0.00  0.00    -0.041 C 
ATOM     14  H7  <0> d          -1.523  -3.529   1.440  0.00  0.00     0.032 H 
ATOM     15  H8  <0> d          -0.535  -2.140   1.952  0.00  0.00     0.032 H 
ATOM     16  H9  <0> d          -2.311  -2.023   1.970  0.00  0.00     0.032 H 
ENDBRANCH   1  13
TORSDOF 4
