REMARK  4 active torsions:
REMARK  status: ('A' for Active; 'I' for Inactive)
REMARK    1  A    between atoms: C1_1  and  O1_2 
REMARK    2  A    between atoms: O1_2  and  C2_3 
REMARK    3  A    between atoms: C5_7  and  O3_10 
REMARK    4  A    between atoms: O3_10  and  C6_11 
ROOT
ATOM      1  C2  <0> d           1.280   2.024   0.001  0.00  0.00     0.151 C 
ATOM      2  H1  <0> d           1.864   1.644  -0.838  0.00  0.00     0.136 H 
ATOM      3  C3  <0> d           1.160   3.528  -0.086  0.00  0.00    -0.050 C 
ATOM      4  C4  <0> d           2.010   4.061   0.760  0.00  0.00    -0.050 C 
ATOM      5  C5  <0> d           2.747   2.943   1.462  0.00  0.00     0.151 C 
ATOM      6  H2  <0> d           2.823   3.154   2.529  0.00  0.00     0.136 H 
ATOM      7  O2  <0> d           1.960   1.756   1.242  0.00  0.00    -0.325 OA
ATOM      8  H6  <0> d           0.489   4.072  -0.735  0.00  0.00     0.084 H 
ATOM      9  H7  <0> d           2.157   5.118   0.927  0.00  0.00     0.084 H 
ENDROOT
BRANCH   1  10
ATOM     10  O1  <0> d          -0.017   1.425   0.010  0.00  0.00    -0.363 OA
BRANCH  10  11
ATOM     11  C1  <0> d           0.002  -0.004   0.002  0.00  0.00     0.007 C 
ATOM     12  H3  <0> d           0.512  -0.356  -0.895  0.00  0.00     0.066 H 
ATOM     13  H4  <0> d           0.529  -0.365   0.885  0.00  0.00     0.066 H 
ATOM     14  H5  <0> d          -1.020  -0.381   0.010  0.00  0.00     0.066 H 
ENDBRANCH  10  11
ENDBRANCH   1  10
BRANCH   5  15
ATOM     15  O3  <0> d           4.050   2.781   0.898  0.00  0.00    -0.363 OA
BRANCH  15  16
ATOM     16  C6  <0> d           4.862   1.820   1.576  0.00  0.00     0.007 C 
ATOM     17  H8  <0> d           4.996   2.125   2.613  0.00  0.00     0.066 H 
ATOM     18  H9  <0> d           4.374   0.846   1.544  0.00  0.00     0.066 H 
ATOM     19  H10 <0> d           5.834   1.756   1.087  0.00  0.00     0.066 H 
ENDBRANCH  15  16
ENDBRANCH   5  15
TORSDOF 4
