REMARK  0 active torsions:
REMARK  status: ('A' for Active; 'I' for Inactive)
ROOT
ATOM      1  C1  <0> d          -0.017   1.382   0.010  0.00  0.00    -0.016 A 
ATOM      2  C2  <0> d           1.299   1.821  -0.001  0.00  0.00     0.026 A 
ATOM      3  N1  <0> d           2.099   0.777  -0.014  0.00  0.00    -0.176 NA
ATOM      4  N2  <0> d           1.323  -0.384  -0.013  0.00  0.00    -0.188 N 
ATOM      5  C3  <0> d           0.002  -0.004   0.002  0.00  0.00     0.176 A 
ATOM      6  N3  <0> d          -0.958  -0.938   0.006  0.00  0.00    -0.130 NA
ATOM      7  N4  <0> d          -0.666  -2.191  -0.003  0.00  0.00    -0.156 NA
ATOM      8  C4  <0> d           0.594  -2.617  -0.018  0.00  0.00     0.077 A 
ATOM      9  C5  <0> d           1.623  -1.719  -0.023  0.00  0.00     0.222 A 
ATOM     10  O1  <0> d           2.909  -2.139  -0.037  0.00  0.00    -0.168 OA
ATOM     11  H1  <0> d          -0.897   2.008   0.025  0.00  0.00     0.091 H 
ATOM     12  H2  <0> d           1.616   2.854   0.001  0.00  0.00     0.117 H 
ATOM     13  H3  <0> d           0.804  -3.676  -0.025  0.00  0.00     0.124 H 
ENDROOT
TORSDOF 0
