REMARK  1 active torsions:
REMARK  status: ('A' for Active; 'I' for Inactive)
REMARK    1  A    between atoms: C5_7  and  O1_12 
ROOT
ATOM      1  C1  <0> d          -2.296   4.154   0.047  0.00  0.00    -0.053 A 
ATOM      2  C2  <0> d          -1.699   5.356   0.048  0.00  0.00    -0.022 A 
ATOM      3  N1  <0> d          -0.338   5.200   0.034  0.00  0.00    -0.365 N 
ATOM      4  H1  <0> d           0.306   5.925   0.032  0.00  0.00     0.165 HD
ATOM      5  C3  <0> d          -0.021   3.860   0.024  0.00  0.00     0.048 A 
ATOM      6  C4  <0> d          -1.232   3.147   0.031  0.00  0.00     0.025 A 
ATOM      7  C5  <0> d          -1.220   1.747   0.017  0.00  0.00     0.081 A 
ATOM      8  C6  <0> d          -0.013   1.076   0.008  0.00  0.00    -0.013 A 
ATOM      9  C7  <0> d           1.183   1.784   0.000  0.00  0.00     0.121 A 
ATOM     10  C8  <0> d           1.184   3.163   0.008  0.00  0.00    -0.019 A 
ATOM     11  F1  <0> d           2.356   1.114  -0.015  0.00  0.00    -0.206 F 
ATOM     12  H2  <0> d          -3.360   3.966   0.057  0.00  0.00     0.087 H 
ATOM     13  H3  <0> d          -2.215   6.305   0.059  0.00  0.00     0.111 H 
ATOM     14  H4  <0> d           0.002  -0.004   0.002  0.00  0.00     0.092 H 
ATOM     15  H5  <0> d           2.119   3.703   0.002  0.00  0.00     0.091 H 
ENDROOT
BRANCH   7  16
ATOM     16  O1  <0> d          -2.388   1.053   0.019  0.00  0.00    -0.360 OA
ATOM     17  H6  <0> d          -2.722   0.847   0.902  0.00  0.00     0.217 HD
ENDBRANCH   7  16
TORSDOF 1
