REMARK  1 active torsions:
REMARK  status: ('A' for Active; 'I' for Inactive)
REMARK    1  A    between atoms: C6_8  and  N4_10 
ROOT
ATOM      1  C1  <0> d          -0.016   1.358   0.009  0.00  0.00    -0.078 A 
ATOM      2  C2  <0> d           1.193   2.067   0.002  0.00  0.00    -0.066 A 
ATOM      3  C3  <0> d           2.371   1.403  -0.013  0.00  0.00     0.006 A 
ATOM      4  N1  <0> d           2.399   0.045  -0.021  0.00  0.00    -0.210 N 
ATOM      5  C4  <0> d           1.238  -0.675  -0.014  0.00  0.00     0.170 A 
ATOM      6  C5  <0> d           0.002  -0.004   0.002  0.00  0.00    -0.036 A 
ATOM      7  N2  <0> d           1.565  -1.963  -0.025  0.00  0.00    -0.042 NA
ATOM      8  C6  <0> d           2.889  -2.088  -0.040  0.00  0.00     0.739 A 
ATOM      9  N3  <0> d           3.442  -0.892  -0.038  0.00  0.00     0.027 NA
ATOM     10  H1  <0> d          -0.957   1.889   0.026  0.00  0.00     0.083 H 
ATOM     11  H2  <0> d           1.184   3.147   0.008  0.00  0.00     0.085 H 
ATOM     12  H3  <0> d           3.298   1.957  -0.020  0.00  0.00     0.114 H 
ATOM     13  H4  <0> d          -0.922  -0.563   0.008  0.00  0.00     0.089 H 
ENDROOT
BRANCH   8  14
ATOM     14  N4  <0> d           3.583  -3.296  -0.054  0.00  0.00    -0.230 N 
ATOM     15  H5  <0> d           3.097  -4.135  -0.054  0.00  0.00     0.174 HD
ATOM     16  H6  <0> d           4.553  -3.297  -0.064  0.00  0.00     0.174 HD
ENDBRANCH   8  14
TORSDOF 1
