REMARK  3 active torsions:
REMARK  status: ('A' for Active; 'I' for Inactive)
REMARK    1  A    between atoms: C2_2  and  C4_9 
REMARK    2  A    between atoms: C4_9  and  C5_10 
REMARK    3  A    between atoms: C5_10  and  C6_11 
ROOT
ATOM      1  C1  <0> d           0.926   1.744   3.171  0.00  0.00     0.003 A 
ATOM      2  C2  <0> d           0.000   1.080   2.488  0.00  0.00     0.029 A 
ATOM      3  N1  <0> d          -0.173  -0.156   3.093  0.00  0.00    -0.311 N 
ATOM      4  H1  <0> d          -0.785  -0.851   2.804  0.00  0.00     0.170 HD
ATOM      5  C3  <0> d           0.658  -0.222   4.152  0.00  0.00     0.324 A 
ATOM      6  O1  <0> d           0.772  -1.165   4.913  0.00  0.00    -0.247 OA
ATOM      7  N2  <0> d           1.341   0.938   4.221  0.00  0.00    -0.317 N 
ATOM      8  H2  <0> d           2.009   1.167   4.886  0.00  0.00     0.170 HD
ATOM      9  H3  <0> d           1.289   2.737   2.951  0.00  0.00     0.114 H 
ENDROOT
BRANCH   2  10
ATOM     10  C4  <0> d          -0.729   1.579   1.267  0.00  0.00    -0.016 C 
ATOM     11  H4  <0> d          -0.744   2.669   1.273  0.00  0.00     0.043 H 
ATOM     12  H5  <0> d          -1.751   1.202   1.275  0.00  0.00     0.043 H 
BRANCH  10  13
ATOM     13  C5  <0> d          -0.013   1.086   0.008  0.00  0.00     0.021 C 
ATOM     14  H6  <0> d           0.002  -0.004   0.002  0.00  0.00     0.049 H 
ATOM     15  H7  <0> d           1.010   1.463   0.000  0.00  0.00     0.049 H 
BRANCH  13  16
ATOM     16  C6  <0> d          -0.742   1.585  -1.213  0.00  0.00     0.172 C 
ATOM     17  O2  <0> d          -1.732   2.266  -1.089  0.00  0.00    -0.648 OA
ATOM     18  O3  <0> d          -0.290   1.274  -2.438  0.00  0.00    -0.648 OA
ENDBRANCH  13  16
ENDBRANCH  10  13
ENDBRANCH   2  10
TORSDOF 3
