REMARK  8 active torsions:
REMARK  status: ('A' for Active; 'I' for Inactive)
REMARK    1  A    between atoms: C1_1  and  C2_2 
REMARK    2  A    between atoms: C2_2  and  C3_3 
REMARK    3  A    between atoms: C3_3  and  C4_5 
REMARK    4  A    between atoms: C3_3  and  O1_10 
REMARK    5  A    between atoms: C4_5  and  C5_6 
REMARK    6  A    between atoms: C4_5  and  C7_8 
REMARK    7  A    between atoms: C5_6  and  C6_7 
REMARK    8  A    between atoms: C7_8  and  C8_9 
ROOT
ATOM      1  C4  <0> d           0.864  -2.210  -1.412  0.00  0.00    -0.030 C 
ATOM      2  H7  <0> d           1.371  -2.781  -0.635  0.00  0.00     0.043 H 
ENDROOT
BRANCH   1   3
ATOM      3  C3  <0> d           1.029  -0.714  -1.135  0.00  0.00     0.038 C 
ATOM      4  H1  <0> d           0.522  -0.142  -1.913  0.00  0.00     0.083 H 
BRANCH   3   5
ATOM      5  C2  <0> d           0.418  -0.377   0.226  0.00  0.00    -0.044 C 
ATOM      6  H5  <0> d           0.982  -0.879   1.012  0.00  0.00     0.036 H 
ATOM      7  H6  <0> d          -0.619  -0.712   0.252  0.00  0.00     0.036 H 
BRANCH   5   8
ATOM      8  C1  <0> d           0.471   1.136   0.448  0.00  0.00    -0.074 C 
ATOM      9  H2  <0> d           1.508   1.471   0.422  0.00  0.00     0.027 H 
ATOM     10  H3  <0> d          -0.093   1.639  -0.337  0.00  0.00     0.027 H 
ATOM     11  H4  <0> d           0.035   1.376   1.418  0.00  0.00     0.027 H 
ENDBRANCH   5   8
ENDBRANCH   3   5
BRANCH   3  12
ATOM     12  O1  <0> d           2.419  -0.381  -1.130  0.00  0.00    -0.395 OA
ATOM     13  H18 <0> d           2.933  -0.853  -0.461  0.00  0.00     0.210 HD
ENDBRANCH   3  12
ENDBRANCH   1   3
BRANCH   1  14
ATOM     14  C5  <0> d          -0.624  -2.566  -1.419  0.00  0.00    -0.063 C 
ATOM     15  H8  <0> d          -0.742  -3.629  -1.629  0.00  0.00     0.033 H 
ATOM     16  H9  <0> d          -1.056  -2.339  -0.444  0.00  0.00     0.033 H 
BRANCH  14  17
ATOM     17  C6  <0> d          -1.339  -1.750  -2.497  0.00  0.00    -0.076 C 
ATOM     18  H10 <0> d          -0.929  -2.001  -3.475  0.00  0.00     0.027 H 
ATOM     19  H11 <0> d          -2.405  -1.980  -2.480  0.00  0.00     0.027 H 
ATOM     20  H12 <0> d          -1.194  -0.687  -2.304  0.00  0.00     0.027 H 
ENDBRANCH  14  17
ENDBRANCH   1  14
BRANCH   1  21
ATOM     21  C7  <0> d           1.475  -2.547  -2.774  0.00  0.00    -0.063 C 
ATOM     22  H13 <0> d           0.906  -2.050  -3.560  0.00  0.00     0.033 H 
ATOM     23  H14 <0> d           2.510  -2.204  -2.803  0.00  0.00     0.033 H 
BRANCH  21  24
ATOM     24  C8  <0> d           1.433  -4.061  -2.991  0.00  0.00    -0.076 C 
ATOM     25  H15 <0> d           2.035  -4.554  -2.229  0.00  0.00     0.027 H 
ATOM     26  H16 <0> d           0.402  -4.409  -2.922  0.00  0.00     0.027 H 
ATOM     27  H17 <0> d           1.830  -4.297  -3.978  0.00  0.00     0.027 H 
ENDBRANCH  21  24
ENDBRANCH   1  21
TORSDOF 8
