REMARK  0 active torsions:
REMARK  status: ('A' for Active; 'I' for Inactive)
ROOT
ATOM      1  C1  <0> d          -0.013   1.076   0.008  0.00  0.00    -0.082 A 
ATOM      2  C2  <0> d          -1.224   1.750   0.017  0.00  0.00    -0.081 A 
ATOM      3  C3  <0> d          -1.261   3.128   0.031  0.00  0.00    -0.056 A 
ATOM      4  C4  <0> d          -0.076   3.855   0.024  0.00  0.00     0.046 A 
ATOM      5  C5  <0> d           1.150   3.171   0.008  0.00  0.00     0.016 A 
ATOM      6  C6  <0> d           1.173   1.778   0.000  0.00  0.00    -0.069 A 
ATOM      7  C7  <0> d           2.198   4.209   0.004  0.00  0.00     0.111 A 
ATOM      8  C8  <0> d           1.539   5.426   0.017  0.00  0.00     0.201 A 
ATOM      9  N1  <0> d           0.196   5.211   0.028  0.00  0.00    -0.333 N 
ATOM     10  H1  <0> d          -0.629   5.938   0.040  0.00  0.00     0.168 HD
ATOM     11  O1  <0> d           2.137   6.639   0.018  0.00  0.00    -0.170 OA
ATOM     12  C9  <0> d           3.614   3.999  -0.011  0.00  0.00     0.105 C 
ATOM     13  N2  <0> d           4.738   3.833  -0.022  0.00  0.00    -0.191 NA
ATOM     14  H2  <0> d           0.002  -0.004   0.002  0.00  0.00     0.083 H 
ATOM     15  H3  <0> d          -2.148   1.190   0.019  0.00  0.00     0.083 H 
ATOM     16  H4  <0> d          -2.211   3.643   0.043  0.00  0.00     0.086 H 
ATOM     17  H5  <0> d           2.116   1.252  -0.011  0.00  0.00     0.085 H 
ENDROOT
TORSDOF 0
