REMARK  8 active torsions:
REMARK  status: ('A' for Active; 'I' for Inactive)
REMARK    1  A    between atoms: C1_1  and  C2_2 
REMARK    2  A    between atoms: C2_2  and  C3_3 
REMARK    3  A    between atoms: C3_3  and  C4_4 
REMARK    4  A    between atoms: C4_4  and  C5_6 
REMARK    5  A    between atoms: C4_4  and  O3_11 
REMARK    6  A    between atoms: C5_6  and  C6_8 
REMARK    7  A    between atoms: C5_6  and  O2_10 
REMARK    8  A    between atoms: C6_8  and  O1_9 
ROOT
ATOM      1  C4  <0> d          -0.729   1.579   1.267  0.00  0.00     0.062 C 
ATOM      2  H1  <0> d          -1.776   1.277   1.232  0.00  0.00     0.086 H 
ENDROOT
BRANCH   1   3
ATOM      3  C3  <0> d          -0.013   1.086   0.008  0.00  0.00    -0.039 C 
ATOM      4  H8  <0> d           0.002  -0.004   0.002  0.00  0.00     0.036 H 
ATOM      5  H9  <0> d           1.010   1.463   0.000  0.00  0.00     0.036 H 
BRANCH   3   6
ATOM      6  C2  <0> d          -0.753   1.593  -1.232  0.00  0.00    -0.066 C 
ATOM      7  H6  <0> d          -1.775   1.215  -1.224  0.00  0.00     0.032 H 
ATOM      8  H7  <0> d          -0.767   2.683  -1.226  0.00  0.00     0.032 H 
BRANCH   6   9
ATOM      9  C1  <0> d          -0.037   1.099  -2.490  0.00  0.00    -0.076 C 
ATOM     10  H3  <0> d          -0.564   1.460  -3.373  0.00  0.00     0.027 H 
ATOM     11  H4  <0> d           0.986   1.476  -2.498  0.00  0.00     0.027 H 
ATOM     12  H5  <0> d          -0.022   0.009  -2.496  0.00  0.00     0.027 H 
ENDBRANCH   6   9
ENDBRANCH   3   6
ENDBRANCH   1   3
BRANCH   1  13
ATOM     13  C5  <0> d          -0.064   0.971   2.503  0.00  0.00     0.080 C 
ATOM     14  H2  <0> d          -0.204  -0.110   2.497  0.00  0.00     0.090 H 
BRANCH  13  15
ATOM     15  C6  <0> d          -0.698   1.560   3.765  0.00  0.00     0.043 C 
ATOM     16  H10 <0> d          -0.481   2.627   3.816  0.00  0.00     0.078 H 
ATOM     17  H11 <0> d          -1.777   1.409   3.734  0.00  0.00     0.078 H 
BRANCH  15  18
ATOM     18  O1  <0> d          -0.160   0.909   4.917  0.00  0.00    -0.398 OA
ATOM     19  H12 <0> d          -0.517   1.233   5.755  0.00  0.00     0.209 HD
ENDBRANCH  15  18
ENDBRANCH  13  15
BRANCH  13  20
ATOM     20  O2  <0> d           1.333   1.271   2.488  0.00  0.00    -0.391 OA
ATOM     21  H13 <0> d           1.533   2.217   2.493  0.00  0.00     0.210 HD
ENDBRANCH  13  20
ENDBRANCH   1  13
BRANCH   1  22
ATOM     22  O3  <0> d          -0.647   3.004   1.334  0.00  0.00    -0.393 OA
ATOM     23  H14 <0> d           0.258   3.345   1.368  0.00  0.00     0.210 HD
ENDBRANCH   1  22
TORSDOF 8
