REMARK  2 active torsions:
REMARK  status: ('A' for Active; 'I' for Inactive)
REMARK    1  A    between atoms: C4_4  and  C7_8 
REMARK    2  A    between atoms: C7_8  and  O1_9 
ROOT
ATOM      1  C1  <0> d          -1.215   1.750   0.017  0.00  0.00    -0.044 A 
ATOM      2  C2  <0> d          -0.013   1.076   0.008  0.00  0.00    -0.059 A 
ATOM      3  C3  <0> d           1.187   1.792   0.000  0.00  0.00     0.053 A 
ATOM      4  C4  <0> d           1.160   3.189   0.008  0.00  0.00    -0.011 A 
ATOM      5  C5  <0> d          -0.048   3.852   0.022  0.00  0.00    -0.036 A 
ATOM      6  C6  <0> d          -1.235   3.136   0.029  0.00  0.00     0.117 A 
ATOM      7  F1  <0> d          -2.417   3.792   0.043  0.00  0.00    -0.206 F 
ATOM      8  C8  <0> d           2.438   1.097  -0.015  0.00  0.00     0.100 C 
ATOM      9  N1  <0> d           3.432   0.546  -0.028  0.00  0.00    -0.191 NA
ATOM     10  H1  <0> d          -2.143   1.198   0.019  0.00  0.00     0.088 H 
ATOM     11  H2  <0> d           0.002  -0.004   0.002  0.00  0.00     0.086 H 
ATOM     12  H3  <0> d          -0.070   4.932   0.028  0.00  0.00     0.089 H 
ENDROOT
BRANCH   4  13
ATOM     13  C7  <0> d           2.450   3.968  -0.000  0.00  0.00     0.042 C 
ATOM     14  H4  <0> d           3.034   3.712   0.883  0.00  0.00     0.081 H 
ATOM     15  H5  <0> d           3.018   3.721  -0.896  0.00  0.00     0.081 H 
BRANCH  13  16
ATOM     16  O1  <0> d           2.160   5.368   0.010  0.00  0.00    -0.396 OA
ATOM     17  H6  <0> d           2.946   5.932   0.005  0.00  0.00     0.209 HD
ENDBRANCH  13  16
ENDBRANCH   4  13
TORSDOF 2
