REMARK  1 active torsions:
REMARK  status: ('A' for Active; 'I' for Inactive)
REMARK    1  A    between atoms: C3_3  and  O1_10 
ROOT
ATOM      1  C1  <0> d           0.041  -2.104   1.150  0.00  0.00    -0.065 A 
ATOM      2  C2  <0> d           0.023  -0.700   1.175  0.00  0.00    -0.046 A 
ATOM      3  C3  <0> d           0.002  -0.004   0.002  0.00  0.00     0.112 A 
ATOM      4  C4  <0> d          -0.006  -0.713  -1.221  0.00  0.00     0.167 A 
ATOM      5  N1  <0> d          -0.016  -0.312  -2.485  0.00  0.00    -0.239 NA
ATOM      6  C5  <0> d          -0.009  -1.381  -3.283  0.00  0.00     0.020 A 
ATOM      7  C6  <0> d           0.013  -2.493  -2.515  0.00  0.00     0.003 A 
ATOM      8  N2  <0> d           0.019  -2.082  -1.210  0.00  0.00    -0.314 N 
ATOM      9  C7  <0> d           0.039  -2.765  -0.027  0.00  0.00    -0.014 A 
ATOM     10  H1  <0> d           0.057  -2.659   2.076  0.00  0.00     0.085 H 
ATOM     11  H2  <0> d           0.025  -0.175   2.119  0.00  0.00     0.087 H 
ATOM     12  H3  <0> d          -0.019  -1.361  -4.363  0.00  0.00     0.117 H 
ATOM     13  H4  <0> d           0.024  -3.514  -2.866  0.00  0.00     0.114 H 
ATOM     14  H5  <0> d           0.053  -3.845  -0.033  0.00  0.00     0.112 H 
ENDROOT
BRANCH   3  15
ATOM     15  O1  <0> d          -0.016   1.355   0.009  0.00  0.00    -0.357 OA
ATOM     16  H6  <0> d           0.862   1.760   0.003  0.00  0.00     0.218 HD
ENDBRANCH   3  15
TORSDOF 1
