REMARK  5 active torsions:
REMARK  status: ('A' for Active; 'I' for Inactive)
REMARK    1  A    between atoms: C1_1  and  C2_2 
REMARK    2  A    between atoms: C2_2  and  C3_3 
REMARK    3  A    between atoms: C2_2  and  C4_4 
REMARK    4  A    between atoms: C2_2  and  O1_5 
REMARK    5  A    between atoms: O1_5  and  C5_6 
ROOT
ATOM      1  C2  <0> d          -4.479   2.397   1.029  0.00  0.00     0.053 C 
ENDROOT
BRANCH   1   2
ATOM      2  C1  <0> d          -4.987   0.999   1.384  0.00  0.00    -0.048 C 
ATOM      3  H2  <0> d          -4.856   0.825   2.452  0.00  0.00     0.031 H 
ATOM      4  H3  <0> d          -6.045   0.921   1.131  0.00  0.00     0.031 H 
ATOM      5  H4  <0> d          -4.423   0.254   0.822  0.00  0.00     0.031 H 
ENDBRANCH   1   2
BRANCH   1   6
ATOM      6  C3  <0> d          -5.271   3.443   1.817  0.00  0.00    -0.048 C 
ATOM      7  H5  <0> d          -4.909   4.439   1.565  0.00  0.00     0.031 H 
ATOM      8  H6  <0> d          -6.328   3.365   1.564  0.00  0.00     0.031 H 
ATOM      9  H7  <0> d          -5.139   3.269   2.885  0.00  0.00     0.031 H 
ENDBRANCH   1   6
BRANCH   1  10
ATOM     10  C4  <0> d          -4.664   2.642  -0.470  0.00  0.00    -0.048 C 
ATOM     11  H8  <0> d          -4.100   1.897  -1.032  0.00  0.00     0.031 H 
ATOM     12  H9  <0> d          -5.721   2.564  -0.723  0.00  0.00     0.031 H 
ATOM     13  H10 <0> d          -4.302   3.639  -0.723  0.00  0.00     0.031 H 
ENDBRANCH   1  10
BRANCH   1  14
ATOM     14  O1  <0> d          -3.093   2.499   1.361  0.00  0.00    -0.352 OA
BRANCH  14  15
ATOM     15  C5  <0> d          -2.261   1.562   0.675  0.00  0.00     0.132 C 
ATOM     16  H1  <0> d          -2.663   0.554   0.777  0.00  0.00     0.129 H 
ATOM     17  O2  <0> d          -2.149   1.916  -0.712  0.00  0.00    -0.361 OA
ATOM     18  C8  <0> d          -0.827   1.631  -1.185  0.00  0.00     0.023 C 
ATOM     19  C7  <0> d          -0.013   1.086   0.008  0.00  0.00    -0.041 C 
ATOM     20  H15 <0> d          -0.365   2.543  -1.563  0.00  0.00     0.074 H 
ATOM     21  H16 <0> d          -0.871   0.882  -1.976  0.00  0.00     0.074 H 
ATOM     22  C6  <0> d          -0.809   1.621   1.229  0.00  0.00    -0.017 C 
ATOM     23  H13 <0> d           0.002  -0.004   0.002  0.00  0.00     0.036 H 
ATOM     24  H14 <0> d           1.001   1.486   0.001  0.00  0.00     0.036 H 
ATOM     25  H11 <0> d          -0.688   0.969   2.094  0.00  0.00     0.040 H 
ATOM     26  H12 <0> d          -0.521   2.645   1.468  0.00  0.00     0.040 H 
ENDBRANCH  14  15
ENDBRANCH   1  14
TORSDOF 5
