REMARK  3 active torsions:
REMARK  status: ('A' for Active; 'I' for Inactive)
REMARK    1  A    between atoms: C1_1  and  C2_2 
REMARK    2  A    between atoms: C2_2  and  C3_3 
REMARK    3  A    between atoms: C3_3  and  C4_4 
ROOT
ATOM      1  C3  <0> d          -0.013   1.086   0.008  0.00  0.00    -0.019 C 
ATOM      2  H6  <0> d           0.002  -0.004   0.002  0.00  0.00     0.043 H 
ATOM      3  H7  <0> d           1.010   1.463   0.000  0.00  0.00     0.043 H 
ENDROOT
BRANCH   1   4
ATOM      4  C2  <0> d          -0.753   1.593  -1.232  0.00  0.00    -0.063 C 
ATOM      5  H4  <0> d          -1.775   1.215  -1.224  0.00  0.00     0.033 H 
ATOM      6  H5  <0> d          -0.767   2.683  -1.226  0.00  0.00     0.033 H 
BRANCH   4   7
ATOM      7  C1  <0> d          -0.037   1.099  -2.490  0.00  0.00    -0.076 C 
ATOM      8  H1  <0> d          -0.564   1.460  -3.373  0.00  0.00     0.027 H 
ATOM      9  H2  <0> d           0.986   1.476  -2.498  0.00  0.00     0.027 H 
ATOM     10  H3  <0> d          -0.022   0.009  -2.496  0.00  0.00     0.027 H 
ENDBRANCH   4   7
ENDBRANCH   1   4
BRANCH   1  11
ATOM     11  C4  <0> d          -0.718   1.572   1.248  0.00  0.00     0.074 A 
ATOM     12  S1  <0> d          -0.464   3.037   2.144  0.00  0.00    -0.085 SA
ATOM     13  C6  <0> d          -1.706   2.759   3.399  0.00  0.00    -0.026 A 
ATOM     14  C5  <0> d          -2.197   1.558   3.001  0.00  0.00     0.009 A 
ATOM     15  H9  <0> d          -1.987   3.376   4.240  0.00  0.00     0.097 H 
ATOM     16  N1  <0> d          -1.687   0.998   1.924  0.00  0.00    -0.258 NA
ATOM     17  H8  <0> d          -2.990   1.075   3.553  0.00  0.00     0.115 H 
ENDBRANCH   1  11
TORSDOF 3
