REMARK  4 active torsions:
REMARK  status: ('A' for Active; 'I' for Inactive)
REMARK    1  A    between atoms: C1_1  and  C2_2 
REMARK    2  A    between atoms: C2_2  and  C3_3 
REMARK    3  A    between atoms: C3_3  and  C4_4 
REMARK    4  A    between atoms: C6_6  and  C8_10 
ROOT
ATOM      1  C4  <0> d           0.762  -2.018   1.233  0.00  0.00     0.009 A 
ATOM      2  C5  <0> d          -0.215  -2.824   1.695  0.00  0.00    -0.054 A 
ATOM      3  C6  <0> d           0.207  -4.154   1.497  0.00  0.00    -0.045 A 
ATOM      4  C7  <0> d           1.426  -4.109   0.922  0.00  0.00    -0.017 A 
ATOM      5  N1  <0> d           1.770  -2.801   0.752  0.00  0.00    -0.369 N 
ATOM      6  H1  <0> d           2.595  -2.480   0.357  0.00  0.00     0.165 HD
ATOM      7  H9  <0> d          -1.149  -2.509   2.136  0.00  0.00     0.087 H 
ATOM      8  H10 <0> d           2.025  -4.963   0.641  0.00  0.00     0.112 H 
ENDROOT
BRANCH   1   9
ATOM      9  C3  <0> d           0.742  -0.511   1.242  0.00  0.00    -0.027 C 
ATOM     10  H7  <0> d           1.765  -0.134   1.234  0.00  0.00     0.042 H 
ATOM     11  H8  <0> d           0.232  -0.159   2.138  0.00  0.00     0.042 H 
BRANCH   9  12
ATOM     12  C2  <0> d           0.002  -0.004   0.002  0.00  0.00    -0.064 C 
ATOM     13  H5  <0> d          -1.020  -0.381   0.010  0.00  0.00     0.033 H 
ATOM     14  H6  <0> d           0.512  -0.356  -0.895  0.00  0.00     0.033 H 
BRANCH  12  15
ATOM     15  C1  <0> d          -0.019   1.526   0.010  0.00  0.00    -0.076 C 
ATOM     16  H2  <0> d           1.004   1.903   0.003  0.00  0.00     0.027 H 
ATOM     17  H3  <0> d          -0.546   1.887  -0.873  0.00  0.00     0.027 H 
ATOM     18  H4  <0> d          -0.529   1.877   0.907  0.00  0.00     0.027 H 
ENDBRANCH  12  15
ENDBRANCH   9  12
ENDBRANCH   1   9
BRANCH   3  19
ATOM     19  C8  <0> d          -0.562  -5.397   1.862  0.00  0.00    -0.050 C 
ATOM     20  H11 <0> d          -1.187  -5.698   1.021  0.00  0.00     0.033 H 
ATOM     21  H12 <0> d           0.136  -6.199   2.101  0.00  0.00     0.033 H 
ATOM     22  H13 <0> d          -1.192  -5.194   2.728  0.00  0.00     0.033 H 
ENDBRANCH   3  19
TORSDOF 4
