REMARK  1 active torsions:
REMARK  status: ('A' for Active; 'I' for Inactive)
REMARK    1  A    between atoms: C2_2  and  C3_3 
ROOT
ATOM      1  C3  <0> d          -1.190   3.201   0.025  0.00  0.00    -0.028 A 
ATOM      2  C4  <0> d           0.009   3.920   0.029  0.00  0.00    -0.072 A 
ATOM      3  C5  <0> d          -0.023   5.300   0.033  0.00  0.00    -0.080 A 
ATOM      4  C6  <0> d          -1.228   5.974   0.042  0.00  0.00    -0.057 A 
ATOM      5  C7  <0> d          -2.431   5.270   0.043  0.00  0.00     0.042 A 
ATOM      6  C8  <0> d          -2.400   3.883   0.035  0.00  0.00    -0.012 A 
ATOM      7  C9  <0> d          -3.839   3.423   0.038  0.00  0.00     0.036 A 
ATOM      8  C10 <0> d          -4.636   4.710   0.050  0.00  0.00     0.226 A 
ATOM      9  O1  <0> d          -5.845   4.810   0.056  0.00  0.00    -0.273 OA
ATOM     10  N1  <0> d          -3.752   5.722   0.051  0.00  0.00    -0.326 N 
ATOM     11  H4  <0> d           0.955   3.399   0.026  0.00  0.00     0.084 H 
ATOM     12  H5  <0> d           0.903   5.856   0.033  0.00  0.00     0.083 H 
ATOM     13  H6  <0> d          -1.238   7.054   0.048  0.00  0.00     0.086 H 
ATOM     14  H7  <0> d          -4.035   2.823  -0.862  0.00  0.00     0.054 H 
ATOM     15  H8  <0> d          -4.027   2.812   0.934  0.00  0.00     0.054 H 
ATOM     16  H9  <0> d          -3.963   6.802   0.059  0.00  0.00     0.169 HD
ENDROOT
BRANCH   1  17
ATOM     17  C2  <0> d          -1.169   1.723   0.017  0.00  0.00    -0.081 C 
ATOM     18  C1  <0> d          -0.013   1.076   0.008  0.00  0.00    -0.120 C 
ATOM     19  H1  <0> d           0.002  -0.024   0.002  0.00  0.00     0.066 H 
ATOM     20  H2  <0> d           0.932   1.639   0.007  0.00  0.00     0.066 H 
ATOM     21  H3  <0> d          -2.115   1.160   0.018  0.00  0.00     0.083 H 
ENDBRANCH   1  17
TORSDOF 1
