REMARK  0 active torsions:
REMARK  status: ('A' for Active; 'I' for Inactive)
ROOT
ATOM      1  C1  <0> d           2.211   5.663   0.011  0.00  0.00    -0.082 A 
ATOM      2  C2  <0> d           0.967   6.291   0.026  0.00  0.00    -0.082 A 
ATOM      3  C3  <0> d          -0.187   5.567   0.034  0.00  0.00    -0.071 A 
ATOM      4  C4  <0> d          -0.125   4.166   0.026  0.00  0.00    -0.008 A 
ATOM      5  C5  <0> d          -1.286   3.371   0.033  0.00  0.00     0.014 A 
ATOM      6  N1  <0> d          -1.192   2.066   0.019  0.00  0.00    -0.249 NA
ATOM      7  C6  <0> d          -0.017   1.428   0.010  0.00  0.00     0.137 A 
ATOM      8  C7  <0> d           1.181   2.122   0.002  0.00  0.00    -0.034 A 
ATOM      9  C8  <0> d           1.143   3.527   0.010  0.00  0.00    -0.022 A 
ATOM     10  C9  <0> d           2.310   4.304   0.003  0.00  0.00    -0.072 A 
ATOM     11  C10 <0> d           0.002  -0.004   0.002  0.00  0.00     0.119 C 
ATOM     12  N2  <0> d           0.018  -1.140  -0.004  0.00  0.00    -0.190 NA
ATOM     13  H1  <0> d           3.110   6.262   0.004  0.00  0.00     0.083 H 
ATOM     14  H2  <0> d           0.917   7.370   0.032  0.00  0.00     0.083 H 
ATOM     15  H3  <0> d          -1.143   6.069   0.046  0.00  0.00     0.084 H 
ATOM     16  H4  <0> d          -2.259   3.840   0.044  0.00  0.00     0.116 H 
ATOM     17  H5  <0> d           2.124   1.595  -0.010  0.00  0.00     0.089 H 
ATOM     18  H6  <0> d           3.280   3.830  -0.009  0.00  0.00     0.084 H 
ENDROOT
TORSDOF 0
