REMARK  4 active torsions:
REMARK  status: ('A' for Active; 'I' for Inactive)
REMARK    1  A    between atoms: C1_1  and  O1_2 
REMARK    2  A    between atoms: O1_2  and  C2_3 
REMARK    3  A    between atoms: C2_3  and  C3_5 
REMARK    4  A    between atoms: N1_9  and  N2_10 
ROOT
ATOM      1  C3  <0> d          -0.742   3.168   0.026  0.00  0.00     0.130 A 
ATOM      2  C4  <0> d           0.637   3.204   0.013  0.00  0.00    -0.048 A 
ATOM      3  C5  <0> d           1.079   1.878   0.002  0.00  0.00    -0.064 A 
ATOM      4  C6  <0> d          -0.013   1.076   0.008  0.00  0.00     0.002 A 
ATOM      5  N1  <0> d          -1.122   1.845   0.017  0.00  0.00    -0.268 N 
ATOM      6  H4  <0> d           1.257   4.088   0.011  0.00  0.00     0.087 H 
ATOM      7  H5  <0> d           2.109   1.550  -0.010  0.00  0.00     0.085 H 
ATOM      8  H6  <0> d           0.002  -0.004   0.002  0.00  0.00     0.114 H 
ENDROOT
BRANCH   1   9
ATOM      9  C2  <0> d          -1.639   4.327   0.041  0.00  0.00     0.311 C 
ATOM     10  O2  <0> d          -1.178   5.452   0.042  0.00  0.00    -0.258 OA
BRANCH   9  11
ATOM     11  O1  <0> d          -2.975   4.145   0.053  0.00  0.00    -0.321 OA
BRANCH  11  12
ATOM     12  C1  <0> d          -3.803   5.338   0.068  0.00  0.00     0.013 C 
ATOM     13  H1  <0> d          -4.864   5.048   0.077  0.00  0.00     0.067 H 
ATOM     14  H2  <0> d          -3.594   5.940  -0.830  0.00  0.00     0.067 H 
ATOM     15  H3  <0> d          -3.576   5.930   0.967  0.00  0.00     0.067 H 
ENDBRANCH  11  12
ENDBRANCH   9  11
ENDBRANCH   1   9
BRANCH   5  16
ATOM     16  N2  <0> d          -2.408   1.386   0.019  0.00  0.00    -0.338 N 
ATOM     17  H7  <0> d          -2.606   0.304   0.011  0.00  0.00     0.177 HD
ATOM     18  H8  <0> d          -3.246   2.098   0.030  0.00  0.00     0.177 HD
ENDBRANCH   5  16
TORSDOF 4
