REMARK  4 active torsions:
REMARK  status: ('A' for Active; 'I' for Inactive)
REMARK    1  A    between atoms: C3_3  and  C5_7 
REMARK    2  A    between atoms: C5_7  and  C6_8 
REMARK    3  A    between atoms: C6_8  and  C7_9 
REMARK    4  A    between atoms: C7_9  and  O2_10 
ROOT
ATOM      1  C1  <0> d          -0.811   1.623  -1.201  0.00  0.00    -0.043 C 
ATOM      2  C2  <0> d          -0.013   1.086   0.008  0.00  0.00    -0.039 C 
ATOM      3  C3  <0> d          -0.788   1.610   1.237  0.00  0.00     0.038 C 
ATOM      4  H1  <0> d          -1.490   0.856   1.593  0.00  0.00     0.083 H 
ATOM      5  O1  <0> d          -1.501   2.772   0.753  0.00  0.00    -0.386 OA
ATOM      6  C4  <0> d          -1.978   2.408  -0.561  0.00  0.00     0.020 C 
ATOM      7  H2  <0> d          -0.191   2.285  -1.804  0.00  0.00     0.036 H 
ATOM      8  H3  <0> d          -1.189   0.799  -1.806  0.00  0.00     0.036 H 
ATOM      9  H4  <0> d           0.002  -0.004   0.002  0.00  0.00     0.036 H 
ATOM     10  H5  <0> d           1.003   1.481   0.000  0.00  0.00     0.036 H 
ATOM     11  H6  <0> d          -2.199   3.302  -1.145  0.00  0.00     0.074 H 
ATOM     12  H7  <0> d          -2.863   1.777  -0.484  0.00  0.00     0.074 H 
ENDROOT
BRANCH   3  13
ATOM     13  C5  <0> d           0.184   2.003   2.352  0.00  0.00    -0.039 C 
ATOM     14  H8  <0> d           0.831   1.158   2.585  0.00  0.00     0.036 H 
ATOM     15  H9  <0> d           0.792   2.846   2.023  0.00  0.00     0.036 H 
BRANCH  13  16
ATOM     16  C6  <0> d          -0.606   2.400   3.600  0.00  0.00    -0.043 C 
ATOM     17  H10 <0> d          -1.253   3.246   3.367  0.00  0.00     0.036 H 
ATOM     18  H11 <0> d          -1.214   1.558   3.929  0.00  0.00     0.036 H 
BRANCH  16  19
ATOM     19  C7  <0> d           0.365   2.794   4.715  0.00  0.00     0.017 C 
ATOM     20  H12 <0> d           1.012   1.948   4.948  0.00  0.00     0.073 H 
ATOM     21  H13 <0> d           0.973   3.637   4.386  0.00  0.00     0.073 H 
BRANCH  19  22
ATOM     22  O2  <0> d          -0.372   3.165   5.881  0.00  0.00    -0.401 OA
ATOM     23  H14 <0> d           0.181   3.426   6.630  0.00  0.00     0.209 HD
ENDBRANCH  19  22
ENDBRANCH  16  19
ENDBRANCH  13  16
ENDBRANCH   3  13
TORSDOF 4
