REMARK  1 active torsions:
REMARK  status: ('A' for Active; 'I' for Inactive)
REMARK    1  A    between atoms: C5_5  and  C6_6 
ROOT
ATOM      1  C1  <0> d          -0.574   1.641  -1.322  0.00  0.00    -0.037 C 
ATOM      2  C2  <0> d           0.644   1.881  -2.183  0.00  0.00    -0.106 C 
ATOM      3  C3  <0> d           1.733   1.891  -1.463  0.00  0.00    -0.106 C 
ATOM      4  C4  <0> d           1.423   1.661  -0.003  0.00  0.00    -0.037 C 
ATOM      5  C5  <0> d          -0.013   1.086   0.008  0.00  0.00     0.036 C 
ATOM      6  H1  <0> d          -1.232   0.909  -1.791  0.00  0.00     0.040 H 
ATOM      7  H2  <0> d          -1.107   2.576  -1.148  0.00  0.00     0.040 H 
ATOM      8  H3  <0> d           0.617   2.025  -3.253  0.00  0.00     0.076 H 
ATOM      9  H4  <0> d           2.726   2.046  -1.860  0.00  0.00     0.076 H 
ATOM     10  H5  <0> d           1.459   2.601   0.547  0.00  0.00     0.040 H 
ATOM     11  H6  <0> d           2.122   0.943   0.427  0.00  0.00     0.040 H 
ATOM     12  H7  <0> d           0.002  -0.004   0.002  0.00  0.00     0.057 H 
ENDROOT
BRANCH   5  13
ATOM     13  C6  <0> d          -0.795   1.607   1.186  0.00  0.00     0.177 C 
ATOM     14  O1  <0> d          -0.260   2.324   1.997  0.00  0.00    -0.648 OA
ATOM     15  O2  <0> d          -2.087   1.274   1.334  0.00  0.00    -0.648 OA
ENDBRANCH   5  13
TORSDOF 1
