REMARK  6 active torsions:
REMARK  status: ('A' for Active; 'I' for Inactive)
REMARK    1  A    between atoms: C1_1  and  C2_2 
REMARK    2  A    between atoms: C2_2  and  C3_4 
REMARK    3  A    between atoms: C2_2  and  O2_10 
REMARK       I    between atoms: C3_4  and  N1_6 
REMARK    4  A    between atoms: N1_6  and  C4_7 
REMARK    5  A    between atoms: C4_7  and  C5_8 
REMARK    6  A    between atoms: C4_7  and  C6_9 
ROOT
ATOM      1  C3  <0> d           0.707  -0.490  -1.238  0.00  0.00     0.246 C 
ATOM      2  O1  <0> d           0.095  -1.114  -2.078  0.00  0.00    -0.271 OA
ATOM      3  N1  <0> d           2.018  -0.231  -1.413  0.00  0.00    -0.355 N 
ATOM      4  H5  <0> d           2.508   0.269  -0.741  0.00  0.00     0.162 HD
ENDROOT
BRANCH   3   5
ATOM      5  C4  <0> d           2.704  -0.703  -2.618  0.00  0.00     0.005 C 
ATOM      6  H6  <0> d           2.292  -1.668  -2.916  0.00  0.00     0.071 H 
BRANCH   5   7
ATOM      7  C5  <0> d           2.504   0.308  -3.748  0.00  0.00    -0.058 C 
ATOM      8  H7  <0> d           3.014  -0.043  -4.645  0.00  0.00     0.030 H 
ATOM      9  H8  <0> d           1.439   0.416  -3.955  0.00  0.00     0.030 H 
ATOM     10  H9  <0> d           2.916   1.272  -3.450  0.00  0.00     0.030 H 
ENDBRANCH   5   7
BRANCH   5  11
ATOM     11  C6  <0> d           4.199  -0.855  -2.328  0.00  0.00    -0.058 C 
ATOM     12  H10 <0> d           4.342  -1.575  -1.523  0.00  0.00     0.030 H 
ATOM     13  H11 <0> d           4.709  -1.206  -3.225  0.00  0.00     0.030 H 
ATOM     14  H12 <0> d           4.611   0.110  -2.030  0.00  0.00     0.030 H 
ENDBRANCH   5  11
ENDBRANCH   3   5
BRANCH   1  15
ATOM     15  C2  <0> d           0.002  -0.004   0.002  0.00  0.00     0.109 C 
ATOM     16  H1  <0> d           0.529  -0.365   0.885  0.00  0.00     0.097 H 
BRANCH  15  17
ATOM     17  C1  <0> d          -0.019   1.526   0.010  0.00  0.00    -0.044 C 
ATOM     18  H2  <0> d           1.004   1.903   0.003  0.00  0.00     0.031 H 
ATOM     19  H3  <0> d          -0.546   1.887  -0.873  0.00  0.00     0.031 H 
ATOM     20  H4  <0> d          -0.529   1.877   0.907  0.00  0.00     0.031 H 
ENDBRANCH  15  17
BRANCH  15  21
ATOM     21  O2  <0> d          -1.339  -0.499   0.012  0.00  0.00    -0.387 OA
ATOM     22  H13 <0> d          -1.853  -0.225   0.784  0.00  0.00     0.210 HD
ENDBRANCH  15  21
ENDBRANCH   1  15
TORSDOF 6
