REMARK  3 active torsions:
REMARK  status: ('A' for Active; 'I' for Inactive)
REMARK    1  A    between atoms: C1_1  and  C2_2 
REMARK    2  A    between atoms: C3_3  and  C6_8 
REMARK    3  A    between atoms: C4_5  and  C5_7 
REMARK       I    between atoms: C6_8  and  N2_10 
ROOT
ATOM      1  C2  <0> d          -3.746   1.332   0.033  0.00  0.00     0.054 A 
ATOM      2  C3  <0> d          -2.447   0.873   0.018  0.00  0.00     0.098 A 
ATOM      3  S1  <0> d          -2.726  -0.892   0.011  0.00  0.00    -0.068 SA
ATOM      4  C4  <0> d          -4.462  -0.846   0.019  0.00  0.00     0.072 A 
ATOM      5  N1  <0> d          -4.710   0.448   0.027  0.00  0.00    -0.250 NA
ENDROOT
BRANCH   2   6
ATOM      6  C6  <0> d          -1.187   1.624   0.017  0.00  0.00     0.258 C 
ATOM      7  O1  <0> d          -1.204   2.841   0.023  0.00  0.00    -0.267 OA
ATOM      8  N2  <0> d          -0.011   0.966   0.007  0.00  0.00    -0.365 N 
ATOM      9  H7  <0> d           0.002  -0.004   0.002  0.00  0.00     0.159 HD
ATOM     10  H8  <0> d           0.822   1.462   0.002  0.00  0.00     0.159 HD
ENDBRANCH   2   6
BRANCH   1  11
ATOM     11  C1  <0> d          -4.047   2.809   0.049  0.00  0.00    -0.034 C 
ATOM     12  H1  <0> d          -4.128   3.175  -0.974  0.00  0.00     0.035 H 
ATOM     13  H2  <0> d          -4.988   2.982   0.572  0.00  0.00     0.035 H 
ATOM     14  H3  <0> d          -3.244   3.338   0.562  0.00  0.00     0.035 H 
ENDBRANCH   1  11
BRANCH   4  15
ATOM     15  C5  <0> d          -5.438  -1.994   0.019  0.00  0.00    -0.029 C 
ATOM     16  H4  <0> d          -4.890  -2.936   0.011  0.00  0.00     0.036 H 
ATOM     17  H5  <0> d          -6.060  -1.943   0.912  0.00  0.00     0.036 H 
ATOM     18  H6  <0> d          -6.069  -1.934  -0.868  0.00  0.00     0.036 H 
ENDBRANCH   4  15
TORSDOF 3
