REMARK  2 active torsions:
REMARK  status: ('A' for Active; 'I' for Inactive)
REMARK    1  A    between atoms: C1_1  and  O1_2 
REMARK    2  A    between atoms: O1_2  and  C2_3 
ROOT
ATOM      1  C2  <0> d           1.163   2.107   0.002  0.00  0.00     0.075 A 
ATOM      2  C3  <0> d           2.380   1.435  -0.012  0.00  0.00    -0.050 A 
ATOM      3  C4  <0> d           2.406   0.053  -0.020  0.00  0.00    -0.080 A 
ATOM      4  C5  <0> d           1.231  -0.669  -0.013  0.00  0.00    -0.072 A 
ATOM      5  C6  <0> d           0.002  -0.004   0.002  0.00  0.00    -0.027 A 
ATOM      6  C7  <0> d          -0.017   1.391   0.010  0.00  0.00    -0.011 A 
ATOM      7  C8  <0> d          -1.471   1.796   0.032  0.00  0.00    -0.022 A 
ATOM      8  C9  <0> d          -2.249   0.501   0.026  0.00  0.00    -0.098 A 
ATOM      9  C10 <0> d          -1.387  -0.500   0.013  0.00  0.00    -0.076 A 
ATOM     10  H4  <0> d           3.304   1.993  -0.018  0.00  0.00     0.087 H 
ATOM     11  H5  <0> d           3.354  -0.465  -0.032  0.00  0.00     0.083 H 
ATOM     12  H6  <0> d           1.260  -1.749  -0.019  0.00  0.00     0.084 H 
ATOM     13  H7  <0> d          -1.689   2.370   0.932  0.00  0.00     0.046 H 
ATOM     14  H8  <0> d          -1.714   2.379  -0.856  0.00  0.00     0.046 H 
ATOM     15  H9  <0> d          -3.325   0.409   0.036  0.00  0.00     0.077 H 
ATOM     16  H10 <0> d          -1.663  -1.545   0.009  0.00  0.00     0.084 H 
ENDROOT
BRANCH   1  17
ATOM     17  O1  <0> d           1.136   3.466   0.010  0.00  0.00    -0.355 OA
BRANCH  17  18
ATOM     18  C1  <0> d           2.396   4.140   0.002  0.00  0.00     0.010 C 
ATOM     19  H1  <0> d           2.967   3.854   0.885  0.00  0.00     0.066 H 
ATOM     20  H2  <0> d           2.950   3.864  -0.895  0.00  0.00     0.066 H 
ATOM     21  H3  <0> d           2.231   5.218   0.009  0.00  0.00     0.066 H 
ENDBRANCH  17  18
ENDBRANCH   1  17
TORSDOF 2
