REMARK  6 active torsions:
REMARK  status: ('A' for Active; 'I' for Inactive)
REMARK    1  A    between atoms: C1_1  and  O1_2 
REMARK    2  A    between atoms: O1_2  and  C2_3 
REMARK    3  A    between atoms: C2_3  and  C3_4 
REMARK    4  A    between atoms: C3_4  and  C4_5 
REMARK    5  A    between atoms: C4_5  and  C5_6 
REMARK    6  A    between atoms: C5_6  and  O2_7 
ROOT
ATOM      1  C3  <0> d           2.534   3.726  -0.002  0.00  0.00    -0.043 C 
ATOM      2  H6  <0> d           3.088   3.407   0.881  0.00  0.00     0.036 H 
ATOM      3  H7  <0> d           3.071   3.417  -0.899  0.00  0.00     0.036 H 
ENDROOT
BRANCH   1   4
ATOM      4  C2  <0> d           2.393   5.250   0.007  0.00  0.00     0.019 C 
ATOM      5  H4  <0> d           1.839   5.569  -0.876  0.00  0.00     0.074 H 
ATOM      6  H5  <0> d           1.856   5.559   0.904  0.00  0.00     0.074 H 
BRANCH   4   7
ATOM      7  O1  <0> d           3.690   5.849  -0.002  0.00  0.00    -0.396 OA
BRANCH   7   8
ATOM      8  C1  <0> d           3.671   7.278   0.006  0.00  0.00     0.004 C 
ATOM      9  H1  <0> d           4.693   7.655  -0.002  0.00  0.00     0.066 H 
ATOM     10  H2  <0> d           3.143   7.639  -0.877  0.00  0.00     0.066 H 
ATOM     11  H3  <0> d           3.160   7.629   0.903  0.00  0.00     0.066 H 
ENDBRANCH   7   8
ENDBRANCH   4   7
ENDBRANCH   1   4
BRANCH   1  12
ATOM     12  C4  <0> d           1.145   3.085   0.008  0.00  0.00    -0.043 C 
ATOM     13  H8  <0> d           0.591   3.404  -0.875  0.00  0.00     0.036 H 
ATOM     14  H9  <0> d           0.608   3.395   0.904  0.00  0.00     0.036 H 
BRANCH  12  15
ATOM     15  C5  <0> d           1.286   1.562  -0.002  0.00  0.00     0.017 C 
ATOM     16  H10 <0> d           1.840   1.243   0.881  0.00  0.00     0.073 H 
ATOM     17  H11 <0> d           1.823   1.252  -0.899  0.00  0.00     0.073 H 
BRANCH  15  18
ATOM     18  O2  <0> d          -0.011   0.963   0.007  0.00  0.00    -0.401 OA
ATOM     19  H12 <0> d           0.002  -0.004   0.002  0.00  0.00     0.209 HD
ENDBRANCH  15  18
ENDBRANCH  12  15
ENDBRANCH   1  12
TORSDOF 6
