REMARK  2 active torsions:
REMARK  status: ('A' for Active; 'I' for Inactive)
REMARK    1  A    between atoms: C1_1  and  C2_2 
REMARK    2  A    between atoms: C6_7  and  N1_12 
ROOT
ATOM      1  C2  <0> d           2.172   0.878   0.420  0.00  0.00     0.045 C 
ATOM      2  H1  <0> d           2.321   0.909   1.500  0.00  0.00     0.084 H 
ATOM      3  C3  <0> d           1.458  -0.429   0.003  0.00  0.00    -0.014 C 
ATOM      4  C4  <0> d           0.002  -0.004   0.002  0.00  0.00    -0.020 A 
ATOM      5  C5  <0> d          -1.170  -0.727  -0.002  0.00  0.00    -0.049 A 
ATOM      6  C6  <0> d          -2.392  -0.065   0.008  0.00  0.00     0.026 A 
ATOM      7  C7  <0> d          -2.420   1.324   0.021  0.00  0.00    -0.055 A 
ATOM      8  C8  <0> d          -1.244   2.043   0.020  0.00  0.00    -0.048 A 
ATOM      9  C9  <0> d          -0.017   1.384   0.010  0.00  0.00     0.075 A 
ATOM     10  O1  <0> d           1.247   1.895   0.000  0.00  0.00    -0.345 OA
ATOM     11  H5  <0> d           1.633  -1.219   0.733  0.00  0.00     0.044 H 
ATOM     12  H6  <0> d           1.772  -0.744  -0.993  0.00  0.00     0.044 H 
ATOM     13  H7  <0> d          -1.140  -1.806  -0.011  0.00  0.00     0.087 H 
ATOM     14  H8  <0> d          -3.368   1.842   0.030  0.00  0.00     0.087 H 
ATOM     15  H9  <0> d          -1.274   3.122   0.030  0.00  0.00     0.087 H 
ENDROOT
BRANCH   1  16
ATOM     16  C1  <0> d           3.507   1.024  -0.313  0.00  0.00    -0.051 C 
ATOM     17  H2  <0> d           3.331   1.048  -1.388  0.00  0.00     0.030 H 
ATOM     18  H3  <0> d           3.992   1.950  -0.003  0.00  0.00     0.030 H 
ATOM     19  H4  <0> d           4.150   0.179  -0.069  0.00  0.00     0.030 H 
ENDBRANCH   1  16
BRANCH   6  20
ATOM     20  N1  <0> d          -3.587  -0.793   0.005  0.00  0.00    -0.399 N 
ATOM     21  H10 <0> d          -3.564  -1.763  -0.004  0.00  0.00     0.156 HD
ATOM     22  H11 <0> d          -4.438  -0.328   0.011  0.00  0.00     0.156 HD
ENDBRANCH   6  20
TORSDOF 2
