REMARK  1 active torsions:
REMARK  status: ('A' for Active; 'I' for Inactive)
REMARK    1  A    between atoms: C7_9  and  N2_11 
ROOT
ATOM      1  C1  <0> d          -0.017   1.384   0.010  0.00  0.00    -0.043 A 
ATOM      2  C2  <0> d           1.163   2.096   0.002  0.00  0.00    -0.049 A 
ATOM      3  C3  <0> d           2.382   1.418  -0.013  0.00  0.00     0.095 A 
ATOM      4  C4  <0> d           2.397   0.015  -0.021  0.00  0.00     0.111 A 
ATOM      5  C5  <0> d           1.204  -0.688  -0.014  0.00  0.00    -0.011 A 
ATOM      6  C6  <0> d           0.002  -0.004   0.002  0.00  0.00     0.119 A 
ATOM      7  F1  <0> d          -1.161  -0.691   0.009  0.00  0.00    -0.206 F 
ATOM      8  O1  <0> d           3.699  -0.352  -0.035  0.00  0.00    -0.276 OA
ATOM      9  C7  <0> d           4.450   0.763  -0.036  0.00  0.00     0.245 A 
ATOM     10  N1  <0> d           3.682   1.823  -0.023  0.00  0.00    -0.206 NA
ATOM     11  H1  <0> d          -0.961   1.908   0.026  0.00  0.00     0.088 H 
ATOM     12  H2  <0> d           1.143   3.176   0.008  0.00  0.00     0.087 H 
ATOM     13  H3  <0> d           1.212  -1.768  -0.020  0.00  0.00     0.092 H 
ENDROOT
BRANCH   9  14
ATOM     14  N2  <0> d           5.827   0.788  -0.048  0.00  0.00    -0.363 N 
ATOM     15  H4  <0> d           6.327  -0.044  -0.057  0.00  0.00     0.159 HD
ATOM     16  H5  <0> d           6.297   1.636  -0.048  0.00  0.00     0.159 HD
ENDBRANCH   9  14
TORSDOF 1
