REMARK  2 active torsions:
REMARK  status: ('A' for Active; 'I' for Inactive)
REMARK    1  A    between atoms: C5_5  and  C10_11 
REMARK    2  A    between atoms: C10_11  and  O1_12 
ROOT
ATOM      1  C1  <0> d          -3.610   3.134   0.052  0.00  0.00    -0.065 A 
ATOM      2  C2  <0> d          -2.459   3.870   0.045  0.00  0.00    -0.069 A 
ATOM      3  C3  <0> d          -1.232   3.182   0.030  0.00  0.00    -0.007 A 
ATOM      4  C4  <0> d          -0.007   3.870   0.022  0.00  0.00    -0.063 A 
ATOM      5  C5  <0> d           1.159   3.168   0.007  0.00  0.00    -0.034 A 
ATOM      6  C6  <0> d           1.155   1.775   0.001  0.00  0.00    -0.073 A 
ATOM      7  C7  <0> d          -0.013   1.076   0.008  0.00  0.00    -0.054 A 
ATOM      8  C8  <0> d          -1.238   1.765   0.018  0.00  0.00     0.066 A 
ATOM      9  N1  <0> d          -2.400   1.105   0.030  0.00  0.00    -0.260 NA
ATOM     10  C9  <0> d          -3.546   1.743   0.045  0.00  0.00     0.003 A 
ATOM     11  H1  <0> d          -4.569   3.631   0.064  0.00  0.00     0.085 H 
ATOM     12  H2  <0> d          -2.490   4.949   0.051  0.00  0.00     0.085 H 
ATOM     13  H3  <0> d           0.009   4.950   0.027  0.00  0.00     0.085 H 
ATOM     14  H4  <0> d           2.094   1.241  -0.011  0.00  0.00     0.084 H 
ATOM     15  H5  <0> d           0.002  -0.004   0.002  0.00  0.00     0.087 H 
ATOM     16  H6  <0> d          -4.464   1.174   0.050  0.00  0.00     0.114 H 
ENDROOT
BRANCH   5  17
ATOM     17  C10 <0> d           2.472   3.908  -0.002  0.00  0.00     0.040 C 
ATOM     18  H7  <0> d           2.357   4.859   0.517  0.00  0.00     0.081 H 
ATOM     19  H8  <0> d           3.230   3.309   0.502  0.00  0.00     0.081 H 
BRANCH  17  20
ATOM     20  O1  <0> d           2.874   4.148  -1.352  0.00  0.00    -0.396 OA
ATOM     21  H9  <0> d           3.713   4.622  -1.434  0.00  0.00     0.209 HD
ENDBRANCH  17  20
ENDBRANCH   5  17
TORSDOF 2
