REMARK  4 active torsions:
REMARK  status: ('A' for Active; 'I' for Inactive)
REMARK    1  A    between atoms: C1_1  and  C2_2 
REMARK    2  A    between atoms: C3_3  and  C4_4 
REMARK    3  A    between atoms: C4_4  and  C5_6 
REMARK    4  A    between atoms: C4_4  and  O1_12 
ROOT
ATOM      1  C4  <0> d          -0.017   1.425   0.010  0.00  0.00     0.077 C 
ATOM      2  H1  <0> d          -0.527   1.776   0.907  0.00  0.00     0.097 H 
ENDROOT
BRANCH   1   3
ATOM      3  C3  <0> d          -0.746   1.924  -1.211  0.00  0.00    -0.076 C 
ATOM      4  C2  <0> d          -1.325   1.073  -2.022  0.00  0.00    -0.108 C 
ATOM      5  H5  <0> d          -1.280   0.014  -1.815  0.00  0.00     0.075 H 
ATOM      6  H6  <0> d          -0.791   2.983  -1.418  0.00  0.00     0.080 H 
BRANCH   4   7
ATOM      7  C1  <0> d          -2.054   1.573  -3.243  0.00  0.00    -0.060 C 
ATOM      8  H2  <0> d          -2.862   2.237  -2.937  0.00  0.00     0.032 H 
ATOM      9  H3  <0> d          -1.360   2.116  -3.883  0.00  0.00     0.032 H 
ATOM     10  H4  <0> d          -2.467   0.726  -3.791  0.00  0.00     0.032 H 
ENDBRANCH   4   7
ENDBRANCH   1   3
BRANCH   1  11
ATOM     11  C5  <0> d           1.397   1.946  -0.001  0.00  0.00    -0.026 A 
ATOM     12  C10 <0> d           1.735   3.042   0.771  0.00  0.00    -0.074 A 
ATOM     13  C9  <0> d           3.032   3.520   0.761  0.00  0.00    -0.082 A 
ATOM     14  H11 <0> d           0.986   3.524   1.382  0.00  0.00     0.084 H 
ATOM     15  C8  <0> d           3.990   2.903  -0.020  0.00  0.00    -0.083 A 
ATOM     16  H10 <0> d           3.296   4.377   1.364  0.00  0.00     0.083 H 
ATOM     17  C7  <0> d           3.652   1.807  -0.792  0.00  0.00    -0.082 A 
ATOM     18  H9  <0> d           5.003   3.277  -0.028  0.00  0.00     0.083 H 
ATOM     19  C6  <0> d           2.356   1.326  -0.778  0.00  0.00    -0.074 A 
ATOM     20  H8  <0> d           4.401   1.325  -1.403  0.00  0.00     0.083 H 
ATOM     21  H7  <0> d           2.093   0.467  -1.378  0.00  0.00     0.084 H 
ENDBRANCH   1  11
BRANCH   1  22
ATOM     22  O1  <0> d           0.002  -0.004   0.002  0.00  0.00    -0.387 OA
ATOM     23  H12 <0> d           0.442  -0.387  -0.769  0.00  0.00     0.210 HD
ENDBRANCH   1  22
TORSDOF 4
