REMARK  2 active torsions:
REMARK  status: ('A' for Active; 'I' for Inactive)
REMARK    1  A    between atoms: C5_6  and  C7_9 
REMARK    2  A    between atoms: C7_9  and  O2_10 
ROOT
ATOM      1  C1  <0> d          -2.229   1.175  -1.143  0.00  0.00    -0.064 C 
ATOM      2  C2  <0> d          -0.761   1.597  -1.227  0.00  0.00    -0.059 C 
ATOM      3  C3  <0> d          -0.013   1.086   0.008  0.00  0.00    -0.009 C 
ATOM      4  C4  <0> d          -0.728   1.577   1.247  0.00  0.00     0.133 C 
ATOM      5  O1  <0> d          -0.126   2.148   2.124  0.00  0.00    -0.297 OA
ATOM      6  C5  <0> d          -2.222   1.335   1.351  0.00  0.00     0.024 C 
ATOM      7  H1  <0> d          -2.393   0.356   1.465  0.00  0.00     0.055 H 
ATOM      8  C6  <0> d          -2.890   1.837   0.067  0.00  0.00    -0.053 C 
ATOM      9  H2  <0> d          -2.747   1.481  -2.052  0.00  0.00     0.033 H 
ATOM     10  H3  <0> d          -2.289   0.091  -1.040  0.00  0.00     0.033 H 
ATOM     11  H4  <0> d          -0.698   2.685  -1.267  0.00  0.00     0.033 H 
ATOM     12  H5  <0> d          -0.312   1.174  -2.126  0.00  0.00     0.033 H 
ATOM     13  H6  <0> d           0.004   0.086  -0.002  0.00  0.00     0.044 H 
ATOM     14  H7  <0> d           1.009   1.466   0.000  0.00  0.00     0.044 H 
ATOM     15  H8  <0> d          -2.776   2.919  -0.003  0.00  0.00     0.034 H 
ATOM     16  H9  <0> d          -3.950   1.584   0.086  0.00  0.00     0.034 H 
ENDROOT
BRANCH   6  17
ATOM     17  C7  <0> d          -2.785   2.094   2.554  0.00  0.00     0.026 C 
ATOM     18  H10 <0> d          -2.511   3.146   2.481  0.00  0.00     0.075 H 
ATOM     19  H11 <0> d          -3.871   2.001   2.567  0.00  0.00     0.075 H 
BRANCH  17  20
ATOM     20  O2  <0> d          -2.247   1.544   3.759  0.00  0.00    -0.400 OA
ATOM     21  H12 <0> d          -2.561   1.978   4.564  0.00  0.00     0.209 HD
ENDBRANCH  17  20
ENDBRANCH   6  17
TORSDOF 2
