REMARK  1 active torsions:
REMARK  status: ('A' for Active; 'I' for Inactive)
REMARK    1  A    between atoms: C3_3  and  C6_7 
ROOT
ATOM      1  C6  <0> d           3.696   2.049  -0.023  0.00  0.00     0.059 C 
ATOM      2  H1  <0> d           3.586   3.069   0.345  0.00  0.00     0.083 H 
ATOM      3  C7  <0> d           4.292   2.054  -1.450  0.00  0.00    -0.036 C 
ATOM      4  C8  <0> d           5.796   1.863  -1.138  0.00  0.00    -0.033 C 
ATOM      5  C9  <0> d           5.801   1.201   0.222  0.00  0.00    -0.023 C 
ATOM      6  N2  <0> d           4.668   1.315   0.796  0.00  0.00    -0.296 NA
ATOM      7  H6  <0> d           3.904   1.224  -2.041  0.00  0.00     0.037 H 
ATOM      8  H7  <0> d           4.111   3.006  -1.948  0.00  0.00     0.037 H 
ATOM      9  H8  <0> d           6.262   1.216  -1.881  0.00  0.00     0.041 H 
ATOM     10  H9  <0> d           6.654   0.697   0.652  0.00  0.00     0.107 H 
ATOM     11  H10 <0> d           6.304   2.827  -1.096  0.00  0.00     0.041 H 
ENDROOT
BRANCH   1  12
ATOM     12  C3  <0> d           2.365   1.343  -0.013  0.00  0.00    -0.016 A 
ATOM     13  C2  <0> d           1.185   2.070   0.002  0.00  0.00    -0.072 A 
ATOM     14  C1  <0> d          -0.017   1.378   0.010  0.00  0.00    -0.065 A 
ATOM     15  H3  <0> d           1.201   3.150   0.007  0.00  0.00     0.084 H 
ATOM     16  C5  <0> d           0.002  -0.004   0.002  0.00  0.00     0.002 A 
ATOM     17  H2  <0> d          -0.955   1.912   0.026  0.00  0.00     0.085 H 
ATOM     18  N1  <0> d           1.144  -0.663  -0.013  0.00  0.00    -0.273 NA
ATOM     19  H5  <0> d          -0.929  -0.550   0.008  0.00  0.00     0.114 H 
ATOM     20  C4  <0> d           2.305  -0.038  -0.020  0.00  0.00     0.010 A 
ATOM     21  H4  <0> d           3.220  -0.612  -0.032  0.00  0.00     0.115 H 
ENDBRANCH   1  12
TORSDOF 1
