REMARK  3 active torsions:
REMARK  status: ('A' for Active; 'I' for Inactive)
REMARK    1  A    between atoms: C1_1  and  O1_2 
REMARK    2  A    between atoms: O1_2  and  C2_3 
REMARK    3  A    between atoms: C3_4  and  N2_9 
ROOT
ATOM      1  C2  <0> d          -1.199  -0.637   0.010  0.00  0.00     0.190 A 
ATOM      2  C3  <0> d          -1.247  -2.032   0.003  0.00  0.00     0.079 A 
ATOM      3  C4  <0> d          -2.484  -2.663   0.012  0.00  0.00    -0.052 A 
ATOM      4  C5  <0> d          -3.627  -1.876   0.028  0.00  0.00    -0.064 A 
ATOM      5  C6  <0> d          -3.502  -0.502   0.034  0.00  0.00     0.005 A 
ATOM      6  N1  <0> d          -2.313   0.073   0.030  0.00  0.00    -0.235 NA
ATOM      7  H4  <0> d          -2.555  -3.741   0.007  0.00  0.00     0.087 H 
ATOM      8  H5  <0> d          -4.605  -2.335   0.035  0.00  0.00     0.085 H 
ATOM      9  H6  <0> d          -4.390   0.113   0.046  0.00  0.00     0.114 H 
ENDROOT
BRANCH   1  10
ATOM     10  O1  <0> d           0.002  -0.004   0.002  0.00  0.00    -0.338 OA
BRANCH  10  11
ATOM     11  C1  <0> d          -0.017   1.425   0.010  0.00  0.00     0.012 C 
ATOM     12  H1  <0> d           1.005   1.802   0.002  0.00  0.00     0.067 H 
ATOM     13  H2  <0> d          -0.544   1.786  -0.873  0.00  0.00     0.067 H 
ATOM     14  H3  <0> d          -0.527   1.776   0.907  0.00  0.00     0.067 H 
ENDBRANCH  10  11
ENDBRANCH   1  10
BRANCH   2  15
ATOM     15  N2  <0> d          -0.066  -2.783  -0.013  0.00  0.00    -0.396 N 
ATOM     16  H7  <0> d           0.794  -2.334  -0.020  0.00  0.00     0.156 HD
ATOM     17  H8  <0> d          -0.107  -3.752  -0.018  0.00  0.00     0.156 HD
ENDBRANCH   2  15
TORSDOF 3
