REMARK  0 active torsions:
REMARK  status: ('A' for Active; 'I' for Inactive)
ROOT
ATOM      1  C1  <0> d          -0.017   1.363   0.009  0.00  0.00    -0.082 A 
ATOM      2  C2  <0> d           1.170   2.086   0.002  0.00  0.00    -0.081 A 
ATOM      3  C3  <0> d           2.388   1.444  -0.013  0.00  0.00    -0.055 A 
ATOM      4  C4  <0> d           2.432   0.053  -0.021  0.00  0.00     0.064 A 
ATOM      5  C5  <0> d           1.224  -0.673  -0.013  0.00  0.00     0.044 A 
ATOM      6  C6  <0> d           0.002  -0.004   0.002  0.00  0.00    -0.067 A 
ATOM      7  C7  <0> d           1.318  -2.143  -0.021  0.00  0.00     0.203 A 
ATOM      8  C8  <0> d           2.628  -2.695  -0.037  0.00  0.00     0.070 A 
ATOM      9  N1  <0> d           3.669  -1.916  -0.043  0.00  0.00    -0.183 NA
ATOM     10  N2  <0> d           3.619  -0.635  -0.036  0.00  0.00    -0.278 N 
ATOM     11  O1  <0> d           0.324  -2.850  -0.015  0.00  0.00    -0.286 OA
ATOM     12  H1  <0> d          -0.962   1.885   0.026  0.00  0.00     0.083 H 
ATOM     13  H2  <0> d           1.136   3.166   0.008  0.00  0.00     0.083 H 
ATOM     14  H3  <0> d           3.304   2.017  -0.020  0.00  0.00     0.087 H 
ATOM     15  H4  <0> d          -0.923  -0.561   0.008  0.00  0.00     0.085 H 
ATOM     16  H5  <0> d           2.759  -3.767  -0.043  0.00  0.00     0.123 H 
ATOM     17  H6  <0> d           4.449  -0.135  -0.042  0.00  0.00     0.189 HD
ENDROOT
TORSDOF 0
