REMARK  3 active torsions:
REMARK  status: ('A' for Active; 'I' for Inactive)
REMARK    1  A    between atoms: C1_1  and  C2_2 
REMARK    2  A    between atoms: C2_2  and  C3_3 
REMARK    3  A    between atoms: C2_2  and  C4_4 
ROOT
ATOM      1  C2  <0> d           0.002  -0.004   0.002  0.00  0.00     0.005 C 
ATOM      2  H4  <0> d          -1.020  -0.381   0.010  0.00  0.00     0.051 H 
ENDROOT
BRANCH   1   3
ATOM      3  C1  <0> d          -0.019   1.526   0.010  0.00  0.00    -0.066 C 
ATOM      4  H1  <0> d           1.004   1.903   0.003  0.00  0.00     0.028 H 
ATOM      5  H2  <0> d          -0.546   1.887  -0.873  0.00  0.00     0.028 H 
ATOM      6  H3  <0> d          -0.529   1.877   0.907  0.00  0.00     0.028 H 
ENDBRANCH   1   3
BRANCH   1   7
ATOM      7  C3  <0> d           0.718  -0.497  -1.257  0.00  0.00    -0.066 C 
ATOM      8  H5  <0> d           1.741  -0.120  -1.264  0.00  0.00     0.028 H 
ATOM      9  H6  <0> d           0.733  -1.587  -1.263  0.00  0.00     0.028 H 
ATOM     10  H7  <0> d           0.191  -0.136  -2.140  0.00  0.00     0.028 H 
ENDBRANCH   1   7
BRANCH   1  11
ATOM     11  C4  <0> d           0.731  -0.503   1.223  0.00  0.00     0.177 A 
ATOM     12  O1  <0> d           2.005  -0.238   1.539  0.00  0.00    -0.195 OA
ATOM     13  N2  <0> d           2.258  -0.910   2.764  0.00  0.00    -0.093 NA
ATOM     14  C5  <0> d           1.154  -1.522   3.087  0.00  0.00     0.251 A 
ATOM     15  N1  <0> d           0.231  -1.272   2.150  0.00  0.00    -0.194 NA
ATOM     16 Cl1  <0> d           0.918  -2.500   4.502  0.00  0.00    -0.039 Cl
ENDBRANCH   1  11
TORSDOF 3
