REMARK  3 active torsions:
REMARK  status: ('A' for Active; 'I' for Inactive)
REMARK    1  A    between atoms: C3_3  and  C4_4 
REMARK    2  A    between atoms: C5_6  and  C6_9 
REMARK    3  A    between atoms: C6_9  and  O2_10 
ROOT
ATOM      1  C4  <0> d           1.990   0.720  -0.013  0.00  0.00     0.177 A 
ATOM      2  N1  <0> d           1.291  -0.389  -0.012  0.00  0.00    -0.206 NA
ATOM      3  C5  <0> d           0.002  -0.004   0.002  0.00  0.00     0.179 A 
ATOM      4  N2  <0> d          -0.015   1.295   0.009  0.00  0.00    -0.109 NA
ATOM      5  O1  <0> d           1.117   1.731   0.001  0.00  0.00    -0.196 OA
ENDROOT
BRANCH   1   6
ATOM      6  C3  <0> d           3.493   0.832  -0.026  0.00  0.00     0.013 A 
ATOM      7  C1  <0> d           4.099   2.222   0.179  0.00  0.00    -0.054 A 
ATOM      8  C2  <0> d           4.136   1.568  -1.204  0.00  0.00    -0.054 A 
ATOM      9  H1  <0> d           3.411   3.055   0.323  0.00  0.00     0.034 H 
ATOM     10  H2  <0> d           5.037   2.286   0.731  0.00  0.00     0.034 H 
ATOM     11  H3  <0> d           5.098   1.201  -1.562  0.00  0.00     0.034 H 
ATOM     12  H4  <0> d           3.472   1.970  -1.969  0.00  0.00     0.034 H 
ATOM     13  H5  <0> d           4.032  -0.019   0.390  0.00  0.00     0.052 H 
ENDBRANCH   1   6
BRANCH   3  14
ATOM     14  C6  <0> d          -1.200  -0.912   0.009  0.00  0.00     0.075 C 
ATOM     15  H6  <0> d          -0.949  -1.845   0.515  0.00  0.00     0.086 H 
ATOM     16  H7  <0> d          -2.022  -0.424   0.533  0.00  0.00     0.086 H 
BRANCH  14  17
ATOM     17  O2  <0> d          -1.594  -1.192  -1.337  0.00  0.00    -0.393 OA
ATOM     18  H8  <0> d          -2.364  -1.772  -1.409  0.00  0.00     0.209 HD
ENDBRANCH  14  17
ENDBRANCH   3  14
TORSDOF 3
