REMARK  2 active torsions:
REMARK  status: ('A' for Active; 'I' for Inactive)
REMARK    1  A    between atoms: C1_1  and  C2_2 
REMARK    2  A    between atoms: N1_7  and  C6_9 
ROOT
ATOM      1  C2  <0> d          -1.159   1.874   3.545  0.00  0.00    -0.034 C 
ATOM      2  H1  <0> d          -0.960   2.632   4.303  0.00  0.00     0.042 H 
ATOM      3  C3  <0> d          -2.384   2.260   2.684  0.00  0.00     0.014 C 
ATOM      4  C4  <0> d          -2.019   1.798   1.290  0.00  0.00     0.219 C 
ATOM      5  O1  <0> d          -2.804   1.662   0.376  0.00  0.00    -0.273 OA
ATOM      6  N1  <0> d          -0.698   1.558   1.213  0.00  0.00    -0.356 N 
ATOM      7  C5  <0> d          -0.031   1.836   2.490  0.00  0.00     0.001 C 
ATOM      8  H5  <0> d          -3.277   1.744   3.038  0.00  0.00     0.047 H 
ATOM      9  H6  <0> d          -2.536   3.339   2.699  0.00  0.00     0.047 H 
ATOM     10  H7  <0> d           0.679   1.044   2.725  0.00  0.00     0.065 H 
ATOM     11  H8  <0> d           0.479   2.799   2.448  0.00  0.00     0.065 H 
ENDROOT
BRANCH   1  12
ATOM     12  C1  <0> d          -1.353   0.499   4.189  0.00  0.00    -0.071 C 
ATOM     13  H2  <0> d          -0.428   0.193   4.676  0.00  0.00     0.028 H 
ATOM     14  H3  <0> d          -2.153   0.553   4.927  0.00  0.00     0.028 H 
ATOM     15  H4  <0> d          -1.617  -0.228   3.420  0.00  0.00     0.028 H 
ENDBRANCH   1  12
BRANCH   6  16
ATOM     16  C6  <0> d          -0.013   1.086   0.008  0.00  0.00    -0.016 C 
ATOM     17  H9  <0> d           0.002  -0.004   0.002  0.00  0.00     0.056 H 
ATOM     18  H10 <0> d           1.010   1.463   0.000  0.00  0.00     0.056 H 
ATOM     19  H11 <0> d          -0.540   1.447  -0.875  0.00  0.00     0.056 H 
ENDBRANCH   6  16
TORSDOF 2
