REMARK  3 active torsions:
REMARK  status: ('A' for Active; 'I' for Inactive)
REMARK    1  A    between atoms: C1_1  and  C2_2 
REMARK    2  A    between atoms: C6_6  and  C7_8 
REMARK    3  A    between atoms: C6_6  and  C8_9 
ROOT
ATOM      1  C2  <0> d          -0.503  -0.410  -0.122  0.00  0.00     0.146 C 
ATOM      2  C3  <0> d          -1.776  -1.229   0.110  0.00  0.00    -0.024 C 
ATOM      3  C4  <0> d          -1.397  -2.695   0.341  0.00  0.00    -0.059 C 
ATOM      4  C5  <0> d          -0.428  -2.779   1.524  0.00  0.00    -0.037 C 
ATOM      5  C6  <0> d           0.793  -1.901   1.238  0.00  0.00     0.056 C 
ATOM      6  O1  <0> d           0.367  -0.558   1.002  0.00  0.00    -0.356 OA
ATOM      7  C9  <0> d           0.177  -0.893  -1.336  0.00  0.00     0.097 C 
ATOM      8  N1  <0> d           0.701  -1.265  -2.272  0.00  0.00    -0.194 NA
ATOM      9  H4  <0> d          -2.301  -0.846   0.985  0.00  0.00     0.038 H 
ATOM     10  H5  <0> d          -2.422  -1.153  -0.765  0.00  0.00     0.038 H 
ATOM     11  H6  <0> d          -2.293  -3.273   0.562  0.00  0.00     0.033 H 
ATOM     12  H7  <0> d          -0.916  -3.092  -0.553  0.00  0.00     0.033 H 
ATOM     13  H8  <0> d          -0.925  -2.428   2.428  0.00  0.00     0.037 H 
ATOM     14  H9  <0> d          -0.109  -3.812   1.661  0.00  0.00     0.037 H 
ENDROOT
BRANCH   1  15
ATOM     15  C1  <0> d          -0.869   1.065  -0.294  0.00  0.00    -0.035 C 
ATOM     16  H1  <0> d           0.038   1.648  -0.459  0.00  0.00     0.033 H 
ATOM     17  H2  <0> d          -1.533   1.177  -1.152  0.00  0.00     0.033 H 
ATOM     18  H3  <0> d          -1.372   1.422   0.604  0.00  0.00     0.033 H 
ENDBRANCH   1  15
BRANCH   5  19
ATOM     19  C7  <0> d           1.523  -2.430   0.002  0.00  0.00    -0.048 C 
ATOM     20  H10 <0> d           0.794  -2.728  -0.751  0.00  0.00     0.031 H 
ATOM     21  H11 <0> d           2.165  -1.647  -0.404  0.00  0.00     0.031 H 
ATOM     22  H12 <0> d           2.131  -3.291   0.279  0.00  0.00     0.031 H 
ENDBRANCH   5  19
BRANCH   5  23
ATOM     23  C8  <0> d           1.738  -1.933   2.441  0.00  0.00    -0.048 C 
ATOM     24  H13 <0> d           2.062  -2.958   2.622  0.00  0.00     0.031 H 
ATOM     25  H14 <0> d           2.607  -1.308   2.237  0.00  0.00     0.031 H 
ATOM     26  H15 <0> d           1.218  -1.556   3.321  0.00  0.00     0.031 H 
ENDBRANCH   5  23
TORSDOF 3
