REMARK  3 active torsions:
REMARK  status: ('A' for Active; 'I' for Inactive)
REMARK    1  A    between atoms: C1_1  and  C2_2 
REMARK    2  A    between atoms: C7_7  and  O1_8 
REMARK    3  A    between atoms: O1_8  and  C8_9 
ROOT
ATOM      1  C2  <0> d          -0.747   1.595   3.561  0.00  0.00    -0.025 A 
ATOM      2  C3  <0> d          -0.206   1.223   4.777  0.00  0.00    -0.034 A 
ATOM      3  C4  <0> d           0.934   0.440   4.818  0.00  0.00     0.155 A 
ATOM      4  C5  <0> d           1.535   0.026   3.638  0.00  0.00     0.157 A 
ATOM      5  C6  <0> d           0.991   0.392   2.420  0.00  0.00    -0.010 A 
ATOM      6  C7  <0> d          -0.149   1.182   2.380  0.00  0.00     0.077 A 
ATOM      7  F1  <0> d           2.648  -0.738   3.679  0.00  0.00    -0.203 F 
ATOM      8  F2  <0> d           1.463   0.078   6.007  0.00  0.00    -0.203 F 
ATOM      9  H4  <0> d          -0.672   1.545   5.696  0.00  0.00     0.089 H 
ATOM     10  H5  <0> d           1.456   0.067   1.501  0.00  0.00     0.092 H 
ENDROOT
BRANCH   6  11
ATOM     11  O1  <0> d          -0.682   1.547   1.184  0.00  0.00    -0.355 OA
BRANCH  11  12
ATOM     12  C8  <0> d          -0.013   1.086   0.008  0.00  0.00     0.010 C 
ATOM     13  H6  <0> d           0.002  -0.004   0.002  0.00  0.00     0.066 H 
ATOM     14  H7  <0> d           1.010   1.463   0.000  0.00  0.00     0.066 H 
ATOM     15  H8  <0> d          -0.540   1.447  -0.875  0.00  0.00     0.066 H 
ENDBRANCH  11  12
ENDBRANCH   6  11
BRANCH   1  16
ATOM     16  C1  <0> d          -1.988   2.448   3.518  0.00  0.00    -0.049 C 
ATOM     17  H1  <0> d          -2.870   1.808   3.509  0.00  0.00     0.033 H 
ATOM     18  H2  <0> d          -2.017   3.092   4.397  0.00  0.00     0.033 H 
ATOM     19  H3  <0> d          -1.976   3.063   2.618  0.00  0.00     0.033 H 
ENDBRANCH   1  16
TORSDOF 3
