REMARK  2 active torsions:
REMARK  status: ('A' for Active; 'I' for Inactive)
REMARK    1  A    between atoms: C1_1  and  C2_2 
REMARK    2  A    between atoms: C5_9  and  C6_10 
ROOT
ATOM      1  C2  <0> d           2.453   3.740   0.102  0.00  0.00    -0.020 A 
ATOM      2  C3  <0> d           2.401   5.122   0.318  0.00  0.00     0.029 A 
ATOM      3  N1  <0> d           1.268   5.766   0.229  0.00  0.00    -0.184 NA
ATOM      4  N2  <0> d           0.158   5.190  -0.054  0.00  0.00    -0.243 N 
ATOM      5  H1  <0> d          -0.650   5.725  -0.105  0.00  0.00     0.192 HD
ATOM      6  C4  <0> d           0.081   3.866  -0.288  0.00  0.00     0.279 A 
ATOM      7  O1  <0> d          -0.988   3.347  -0.560  0.00  0.00    -0.266 OA
ATOM      8  C5  <0> d           1.265   3.080  -0.208  0.00  0.00     0.117 A 
ATOM      9  H5  <0> d           3.305   5.661   0.560  0.00  0.00     0.118 H 
ENDROOT
BRANCH   1  10
ATOM     10  C1  <0> d           3.755   2.988   0.203  0.00  0.00    -0.049 C 
ATOM     11  H2  <0> d           4.193   2.885  -0.789  0.00  0.00     0.033 H 
ATOM     12  H3  <0> d           4.442   3.535   0.849  0.00  0.00     0.033 H 
ATOM     13  H4  <0> d           3.572   1.999   0.623  0.00  0.00     0.033 H 
ENDBRANCH   1  10
BRANCH   8  14
ATOM     14  C6  <0> d           1.237   1.627  -0.450  0.00  0.00     0.215 C 
ATOM     15  O2  <0> d           2.276   0.998  -0.490  0.00  0.00    -0.644 OA
ATOM     16  O3  <0> d           0.059   0.996  -0.625  0.00  0.00    -0.644 OA
ENDBRANCH   8  14
TORSDOF 2
