REMARK  6 active torsions:
REMARK  status: ('A' for Active; 'I' for Inactive)
REMARK    1  A    between atoms: C1_1  and  C2_2 
REMARK    2  A    between atoms: C2_2  and  C3_3 
REMARK    3  A    between atoms: C2_2  and  C4_4 
REMARK    4  A    between atoms: C4_4  and  N1_5 
REMARK    5  A    between atoms: N1_5  and  C5_6 
REMARK    6  A    between atoms: N3_10  and  C8_11 
ROOT
ATOM      1  N1  <0> d          -1.110  -0.829   0.009  0.00  0.00    -0.226 N 
ATOM      2  H10 <0> d          -2.119  -0.392   0.021  0.00  0.00     0.177 HD
ENDROOT
BRANCH   1   3
ATOM      3  C4  <0> d          -0.943  -2.285  -0.001  0.00  0.00     0.012 C 
ATOM      4  H8  <0> d          -0.377  -2.594   0.890  0.00  0.00     0.065 H 
ATOM      5  H9  <0> d          -0.395  -2.585  -0.906  0.00  0.00     0.065 H 
BRANCH   3   6
ATOM      6  C2  <0> d          -2.317  -2.956   0.009  0.00  0.00    -0.045 C 
ATOM      7  H4  <0> d          -2.899  -2.587   0.867  0.00  0.00     0.041 H 
BRANCH   6   8
ATOM      8  C1  <0> d          -3.056  -2.626  -1.289  0.00  0.00    -0.072 C 
ATOM      9  H1  <0> d          -3.181  -1.536  -1.373  0.00  0.00     0.028 H 
ATOM     10  H2  <0> d          -4.044  -3.108  -1.282  0.00  0.00     0.028 H 
ATOM     11  H3  <0> d          -2.474  -2.994  -2.147  0.00  0.00     0.028 H 
ENDBRANCH   6   8
BRANCH   6  12
ATOM     12  C3  <0> d          -2.143  -4.472   0.125  0.00  0.00    -0.072 C 
ATOM     13  H5  <0> d          -1.612  -4.710   1.058  0.00  0.00     0.028 H 
ATOM     14  H6  <0> d          -1.561  -4.841  -0.732  0.00  0.00     0.028 H 
ATOM     15  H7  <0> d          -3.132  -4.955   0.132  0.00  0.00     0.028 H 
ENDBRANCH   6  12
ENDBRANCH   3   6
ENDBRANCH   1   3
BRANCH   1  16
ATOM     16  C5  <0> d           0.002  -0.004   0.002  0.00  0.00     0.679 A 
ATOM     17  N3  <0> d          -0.016   1.356   0.009  0.00  0.00    -0.197 N 
ATOM     18  C7  <0> d           1.294   1.777  -0.001  0.00  0.00     0.012 A 
ATOM     19  C6  <0> d           2.060   0.672  -0.014  0.00  0.00     0.010 A 
ATOM     20  H12 <0> d           1.641   2.800   0.001  0.00  0.00     0.114 H 
ATOM     21  N2  <0> d           1.252  -0.402  -0.012  0.00  0.00    -0.201 N 
ATOM     22  H11 <0> d           3.140   0.652  -0.025  0.00  0.00     0.114 H 
ATOM     23  H16 <0> d           1.488  -1.476  -0.020  0.00  0.00     0.183 HD
BRANCH  17  24
ATOM     24  C8  <0> d          -1.206   2.211   0.020  0.00  0.00     0.002 C 
ATOM     25  H13 <0> d          -0.898   3.267   0.024  0.00  0.00     0.058 H 
ATOM     26  H14 <0> d          -1.802   1.999   0.920  0.00  0.00     0.058 H 
ATOM     27  H15 <0> d          -1.811   2.009  -0.876  0.00  0.00     0.058 H 
ENDBRANCH  17  24
ENDBRANCH   1  16
TORSDOF 6
