REMARK  4 active torsions:
REMARK  status: ('A' for Active; 'I' for Inactive)
REMARK    1  A    between atoms: C1_1  and  C2_2 
REMARK    2  A    between atoms: C2_2  and  C3_3 
REMARK    3  A    between atoms: C4_5  and  C7_11 
REMARK    4  A    between atoms: C5_6  and  C6_8 
ROOT
ATOM      1  C3  <0> d          -1.412  -0.526   0.013  0.00  0.00     0.146 A 
ATOM      2  N1  <0> d          -2.130  -0.787  -1.047  0.00  0.00    -0.230 NA
ATOM      3  C4  <0> d          -3.330  -1.231  -0.662  0.00  0.00     0.074 A 
ATOM      4  C5  <0> d          -3.342  -1.240   0.704  0.00  0.00     0.177 A 
ATOM      5  O1  <0> d          -2.127  -0.800   1.107  0.00  0.00    -0.287 OA
ENDROOT
BRANCH   1   6
ATOM      6  C2  <0> d           0.002  -0.004   0.002  0.00  0.00    -0.007 C 
ATOM      7  H4  <0> d           0.512  -0.356  -0.895  0.00  0.00     0.044 H 
ATOM      8  H5  <0> d           0.529  -0.365   0.885  0.00  0.00     0.044 H 
BRANCH   6   9
ATOM      9  C1  <0> d          -0.019   1.526   0.010  0.00  0.00    -0.069 C 
ATOM     10  H1  <0> d           1.004   1.903   0.003  0.00  0.00     0.028 H 
ATOM     11  H2  <0> d          -0.546   1.887  -0.873  0.00  0.00     0.028 H 
ATOM     12  H3  <0> d          -0.529   1.877   0.907  0.00  0.00     0.028 H 
ENDBRANCH   6   9
ENDBRANCH   1   6
BRANCH   4  13
ATOM     13  C6  <0> d          -4.451  -1.652   1.564  0.00  0.00     0.236 C 
ATOM     14  O2  <0> d          -5.502  -2.038   1.066  0.00  0.00    -0.642 OA
ATOM     15  O3  <0> d          -4.329  -1.612   2.782  0.00  0.00    -0.642 OA
ENDBRANCH   4  13
BRANCH   3  16
ATOM     16  C7  <0> d          -4.461  -1.644  -1.568  0.00  0.00    -0.033 C 
ATOM     17  H6  <0> d          -4.378  -2.708  -1.790  0.00  0.00     0.035 H 
ATOM     18  H7  <0> d          -5.412  -1.449  -1.073  0.00  0.00     0.035 H 
ATOM     19  H8  <0> d          -4.410  -1.074  -2.495  0.00  0.00     0.035 H 
ENDBRANCH   3  16
TORSDOF 4
