REMARK  5 active torsions:
REMARK  status: ('A' for Active; 'I' for Inactive)
REMARK    1  A    between atoms: C1_1  and  O1_2 
REMARK    2  A    between atoms: O1_2  and  C2_3 
REMARK    3  A    between atoms: C2_3  and  C3_4 
REMARK    4  A    between atoms: C2_3  and  O2_7 
REMARK    5  A    between atoms: O2_7  and  C5_8 
ROOT
ATOM      1  C3  <0> d          -0.042   1.643   0.757  0.00  0.00     0.060 C 
ATOM      2  C4  <0> d          -0.018   0.270   1.287  0.00  0.00     0.064 C 
ATOM      3  N1  <0> d           0.001  -0.789   1.697  0.00  0.00    -0.197 NA
ATOM      4  H5  <0> d          -0.628   1.667  -0.162  0.00  0.00     0.062 H 
ATOM      5  H6  <0> d          -0.492   2.309   1.493  0.00  0.00     0.062 H 
ENDROOT
BRANCH   1   6
ATOM      6  C2  <0> d           1.388   2.101   0.462  0.00  0.00     0.141 C 
ATOM      7  H4  <0> d           1.996   1.992   1.360  0.00  0.00     0.130 H 
BRANCH   6   8
ATOM      8  O1  <0> d           1.938   1.300  -0.586  0.00  0.00    -0.365 OA
BRANCH   8   9
ATOM      9  C1  <0> d           3.364   1.213  -0.564  0.00  0.00     0.007 C 
ATOM     10  H1  <0> d           3.789   2.216  -0.546  0.00  0.00     0.066 H 
ATOM     11  H2  <0> d           3.680   0.669   0.326  0.00  0.00     0.066 H 
ATOM     12  H3  <0> d           3.710   0.687  -1.453  0.00  0.00     0.066 H 
ENDBRANCH   8   9
ENDBRANCH   6   8
BRANCH   6  13
ATOM     13  O2  <0> d           1.375   3.471   0.058  0.00  0.00    -0.365 OA
BRANCH  13  14
ATOM     14  C5  <0> d           2.663   4.090   0.060  0.00  0.00     0.007 C 
ATOM     15  H7  <0> d           3.200   3.808   0.966  0.00  0.00     0.066 H 
ATOM     16  H8  <0> d           3.226   3.760  -0.813  0.00  0.00     0.066 H 
ATOM     17  H9  <0> d           2.546   5.173   0.030  0.00  0.00     0.066 H 
ENDBRANCH  13  14
ENDBRANCH   6  13
ENDBRANCH   1   6
TORSDOF 5
