REMARK  4 active torsions:
REMARK  status: ('A' for Active; 'I' for Inactive)
REMARK    1  A    between atoms: C1_1  and  C2_2 
REMARK    2  A    between atoms: C2_2  and  C3_3 
REMARK    3  A    between atoms: C2_2  and  O1_4 
REMARK    4  A    between atoms: O1_4  and  C4_5 
ROOT
ATOM      1  C4  <0> d          -0.050   3.842   0.021  0.00  0.00     0.069 A 
ATOM      2  C5  <0> d          -1.223   3.132  -0.190  0.00  0.00    -0.051 A 
ATOM      3  C6  <0> d          -1.202   1.751  -0.197  0.00  0.00    -0.080 A 
ATOM      4  C7  <0> d          -0.013   1.076   0.006  0.00  0.00    -0.083 A 
ATOM      5  C8  <0> d           1.157   1.781   0.223  0.00  0.00    -0.080 A 
ATOM      6  C9  <0> d           1.142   3.162   0.225  0.00  0.00    -0.051 A 
ATOM      7  H8  <0> d          -2.152   3.659  -0.348  0.00  0.00     0.087 H 
ATOM      8  H9  <0> d          -2.115   1.198  -0.362  0.00  0.00     0.083 H 
ATOM      9  H10 <0> d           0.002  -0.004   0.001  0.00  0.00     0.083 H 
ATOM     10  H11 <0> d           2.084   1.251   0.386  0.00  0.00     0.083 H 
ATOM     11  H12 <0> d           2.057   3.712   0.390  0.00  0.00     0.087 H 
ENDROOT
BRANCH   1  12
ATOM     12  O1  <0> d          -0.069   5.201   0.029  0.00  0.00    -0.347 OA
BRANCH  12  13
ATOM     13  C2  <0> d          -1.347   5.833  -0.066  0.00  0.00     0.038 C 
ATOM     14  H4  <0> d          -2.088   5.235   0.464  0.00  0.00     0.082 H 
BRANCH  13  15
ATOM     15  C1  <0> d          -1.274   7.227   0.559  0.00  0.00    -0.052 C 
ATOM     16  H1  <0> d          -0.533   7.825   0.029  0.00  0.00     0.030 H 
ATOM     17  H2  <0> d          -2.249   7.709   0.487  0.00  0.00     0.030 H 
ATOM     18  H3  <0> d          -0.989   7.141   1.608  0.00  0.00     0.030 H 
ENDBRANCH  13  15
BRANCH  13  19
ATOM     19  C3  <0> d          -1.747   5.954  -1.538  0.00  0.00    -0.052 C 
ATOM     20  H5  <0> d          -1.006   6.552  -2.068  0.00  0.00     0.030 H 
ATOM     21  H6  <0> d          -1.799   4.960  -1.983  0.00  0.00     0.030 H 
ATOM     22  H7  <0> d          -2.722   6.436  -1.610  0.00  0.00     0.030 H 
ENDBRANCH  13  19
ENDBRANCH  12  13
ENDBRANCH   1  12
TORSDOF 4
