REMARK  1 active torsions:
REMARK  status: ('A' for Active; 'I' for Inactive)
REMARK    1  A    between atoms: C7_7  and  O2_12 
ROOT
ATOM      1  C1  <0> d          -0.017   1.380   0.010  0.00  0.00    -0.082 A 
ATOM      2  C2  <0> d           1.174   2.084   0.002  0.00  0.00    -0.081 A 
ATOM      3  C3  <0> d           2.380   1.415  -0.013  0.00  0.00    -0.057 A 
ATOM      4  C4  <0> d           2.407   0.021  -0.021  0.00  0.00     0.044 A 
ATOM      5  C5  <0> d           1.205  -0.674  -0.013  0.00  0.00     0.006 A 
ATOM      6  C6  <0> d           0.002  -0.004   0.002  0.00  0.00    -0.072 A 
ATOM      7  C7  <0> d           1.563  -2.143  -0.025  0.00  0.00     0.140 A 
ATOM      8  H1  <0> d           1.187  -2.635   0.873  0.00  0.00     0.105 H 
ATOM      9  C8  <0> d           3.077  -2.152  -0.040  0.00  0.00     0.255 A 
ATOM     10  O1  <0> d           3.791  -3.132  -0.052  0.00  0.00    -0.270 OA
ATOM     11  N1  <0> d           3.480  -0.870  -0.037  0.00  0.00    -0.324 N 
ATOM     12  H2  <0> d          -0.958   1.908   0.026  0.00  0.00     0.083 H 
ATOM     13  H3  <0> d           1.159   3.164   0.008  0.00  0.00     0.083 H 
ATOM     14  H4  <0> d           3.305   1.972  -0.020  0.00  0.00     0.086 H 
ATOM     15  H5  <0> d          -0.925  -0.557   0.008  0.00  0.00     0.084 H 
ATOM     16  H6  <0> d           4.410  -0.596  -0.044  0.00  0.00     0.169 HD
ENDROOT
BRANCH   7  17
ATOM     17  O2  <0> d           1.044  -2.776  -1.196  0.00  0.00    -0.381 OA
ATOM     18  H7  <0> d           1.244  -3.720  -1.254  0.00  0.00     0.211 HD
ENDBRANCH   7  17
TORSDOF 1
