REMARK  2 active torsions:
REMARK  status: ('A' for Active; 'I' for Inactive)
REMARK    1  A    between atoms: C1_1  and  C2_2 
REMARK    2  A    between atoms: C6_7  and  N2_8 
ROOT
ATOM      1  C2  <0> d           2.368  -0.026  -0.021  0.00  0.00    -0.015 A 
ATOM      2  C3  <0> d           2.396   1.343  -0.014  0.00  0.00    -0.052 A 
ATOM      3  C4  <0> d           1.177   2.038   0.002  0.00  0.00     0.062 A 
ATOM      4  C5  <0> d          -0.016   1.313   0.009  0.00  0.00     0.025 A 
ATOM      5  N1  <0> d           0.002  -0.004   0.002  0.00  0.00    -0.242 NA
ATOM      6  C6  <0> d           1.140  -0.684  -0.013  0.00  0.00     0.126 A 
ATOM      7  C7  <0> d           1.157   3.470   0.009  0.00  0.00     0.101 C 
ATOM      8  N3  <0> d           1.141   4.606   0.015  0.00  0.00    -0.191 NA
ATOM      9  H4  <0> d           3.336   1.876  -0.020  0.00  0.00     0.086 H 
ATOM     10  H5  <0> d          -0.961   1.836   0.017  0.00  0.00     0.117 H 
ENDROOT
BRANCH   1  11
ATOM     11  C1  <0> d           3.653  -0.813  -0.037  0.00  0.00    -0.048 C 
ATOM     12  H1  <0> d           4.507  -0.120  -0.041  0.00  0.00     0.033 H 
ATOM     13  H2  <0> d           3.686  -1.442  -0.938  0.00  0.00     0.033 H 
ATOM     14  H3  <0> d           3.703  -1.451   0.858  0.00  0.00     0.033 H 
ENDBRANCH   1  11
BRANCH   6  15
ATOM     15  N2  <0> d           1.108  -2.070  -0.020  0.00  0.00    -0.384 N 
ATOM     16  H6  <0> d           0.143  -2.598  -0.014  0.00  0.00     0.157 HD
ATOM     17  H7  <0> d           2.047  -2.642  -0.032  0.00  0.00     0.157 HD
ENDBRANCH   6  15
TORSDOF 2
