REMARK  5 active torsions:
REMARK  status: ('A' for Active; 'I' for Inactive)
REMARK    1  A    between atoms: C1_1  and  C2_2 
REMARK    2  A    between atoms: C2_2  and  C3_3 
REMARK    3  A    between atoms: C2_2  and  C4_4 
REMARK    4  A    between atoms: C4_4  and  N1_5 
REMARK       I    between atoms: N1_5  and  C5_6 
REMARK       I    between atoms: C5_6  and  N2_8 
REMARK    5  A    between atoms: N2_8  and  C6_9 
ROOT
ATOM      1  C4  <0> d          -1.295   2.059   0.019  0.00  0.00    -0.001 C 
ATOM      2  H8  <0> d          -1.867   1.792  -0.869  0.00  0.00     0.064 H 
ATOM      3  H9  <0> d          -1.859   1.783   0.911  0.00  0.00     0.064 H 
ENDROOT
BRANCH   1   4
ATOM      4  C2  <0> d          -1.036   3.567   0.026  0.00  0.00    -0.046 C 
ATOM      5  H4  <0> d          -0.389   3.820   0.867  0.00  0.00     0.041 H 
BRANCH   4   6
ATOM      6  C1  <0> d          -0.355   3.973  -1.282  0.00  0.00    -0.072 C 
ATOM      7  H1  <0> d          -0.170   5.047  -1.277  0.00  0.00     0.028 H 
ATOM      8  H2  <0> d           0.592   3.442  -1.379  0.00  0.00     0.028 H 
ATOM      9  H3  <0> d          -1.001   3.719  -2.122  0.00  0.00     0.028 H 
ENDBRANCH   4   6
BRANCH   4  10
ATOM     10  C3  <0> d          -2.365   4.312   0.162  0.00  0.00    -0.072 C 
ATOM     11  H5  <0> d          -2.850   4.022   1.095  0.00  0.00     0.028 H 
ATOM     12  H6  <0> d          -2.180   5.386   0.167  0.00  0.00     0.028 H 
ATOM     13  H7  <0> d          -3.011   4.058  -0.678  0.00  0.00     0.028 H 
ENDBRANCH   4  10
ENDBRANCH   1   4
BRANCH   1  14
ATOM     14  N1  <0> d          -0.016   1.344   0.009  0.00  0.00    -0.343 N 
ATOM     15  C5  <0> d           0.002  -0.004   0.002  0.00  0.00     0.315 C 
ATOM     16  O1  <0> d          -1.042  -0.626   0.009  0.00  0.00    -0.247 OA
ATOM     17  N2  <0> d           1.178  -0.662  -0.013  0.00  0.00    -0.347 N 
ATOM     18  H11 <0> d           2.012  -0.166  -0.018  0.00  0.00     0.163 HD
ATOM     19  H10 <0> d           0.817   1.840   0.004  0.00  0.00     0.164 HD
BRANCH  17  20
ATOM     20  C6  <0> d           1.198  -2.127  -0.021  0.00  0.00    -0.017 C 
ATOM     21  H12 <0> d           0.698  -2.502   0.872  0.00  0.00     0.056 H 
ATOM     22  H13 <0> d           0.681  -2.492  -0.908  0.00  0.00     0.056 H 
ATOM     23  H14 <0> d           2.231  -2.476  -0.033  0.00  0.00     0.056 H 
ENDBRANCH  17  20
ENDBRANCH   1  14
TORSDOF 5
