REMARK  2 active torsions:
REMARK  status: ('A' for Active; 'I' for Inactive)
REMARK    1  A    between atoms: C1_1  and  O1_2 
REMARK    2  A    between atoms: O1_2  and  C2_3 
ROOT
ATOM      1  C2  <0> d          -1.223   1.754   0.017  0.00  0.00     0.069 A 
ATOM      2  C3  <0> d          -0.013   1.076   0.008  0.00  0.00    -0.051 A 
ATOM      3  C4  <0> d           1.174   1.783   0.000  0.00  0.00    -0.079 A 
ATOM      4  C5  <0> d           1.157   3.166   0.008  0.00  0.00    -0.062 A 
ATOM      5  C6  <0> d          -0.049   3.844   0.023  0.00  0.00     0.036 A 
ATOM      6  C7  <0> d          -1.239   3.140   0.031  0.00  0.00    -0.030 A 
ATOM      7 Cl1  <0> d          -0.068   5.580   0.032  0.00  0.00    -0.084 Cl
ATOM      8  H4  <0> d           0.002  -0.004   0.002  0.00  0.00     0.087 H 
ATOM      9  H5  <0> d           2.116   1.256  -0.012  0.00  0.00     0.083 H 
ATOM     10  H6  <0> d           2.085   3.716   0.002  0.00  0.00     0.086 H 
ATOM     11  H7  <0> d          -2.181   3.670   0.043  0.00  0.00     0.090 H 
ENDROOT
BRANCH   1  12
ATOM     12  O1  <0> d          -2.392   1.059   0.019  0.00  0.00    -0.356 OA
BRANCH  12  13
ATOM     13  C1  <0> d          -3.600   1.823   0.029  0.00  0.00     0.010 C 
ATOM     14  H1  <0> d          -4.456   1.148   0.029  0.00  0.00     0.066 H 
ATOM     15  H2  <0> d          -3.628   2.446   0.922  0.00  0.00     0.066 H 
ATOM     16  H3  <0> d          -3.637   2.456  -0.857  0.00  0.00     0.066 H 
ENDBRANCH  12  13
ENDBRANCH   1  12
TORSDOF 2
