REMARK  6 active torsions:
REMARK  status: ('A' for Active; 'I' for Inactive)
REMARK    1  A    between atoms: C1_1  and  C2_2 
REMARK    2  A    between atoms: C2_2  and  C3_3 
REMARK    3  A    between atoms: C3_3  and  C4_4 
REMARK    4  A    between atoms: C3_3  and  C5_5 
REMARK    5  A    between atoms: C3_3  and  O1_8 
REMARK    6  A    between atoms: C5_5  and  C6_6 
ROOT
ATOM      1  C3  <0> d          -2.182   1.345  -1.162  0.00  0.00     0.057 C 
ENDROOT
BRANCH   1   2
ATOM      2  C2  <0> d          -3.464   2.179  -1.225  0.00  0.00    -0.040 C 
ATOM      3  H4  <0> d          -4.024   2.054  -0.299  0.00  0.00     0.036 H 
ATOM      4  H5  <0> d          -3.207   3.230  -1.355  0.00  0.00     0.036 H 
BRANCH   2   5
ATOM      5  C1  <0> d          -4.318   1.712  -2.405  0.00  0.00    -0.074 C 
ATOM      6  H1  <0> d          -3.758   1.837  -3.332  0.00  0.00     0.027 H 
ATOM      7  H2  <0> d          -4.575   0.661  -2.275  0.00  0.00     0.027 H 
ATOM      8  H3  <0> d          -5.231   2.306  -2.450  0.00  0.00     0.027 H 
ENDBRANCH   2   5
ENDBRANCH   1   2
BRANCH   1   9
ATOM      9  C4  <0> d          -1.395   1.520  -2.462  0.00  0.00    -0.048 C 
ATOM     10  H6  <0> d          -0.483   0.926  -2.417  0.00  0.00     0.031 H 
ATOM     11  H7  <0> d          -2.004   1.188  -3.303  0.00  0.00     0.031 H 
ATOM     12  H8  <0> d          -1.139   2.571  -2.593  0.00  0.00     0.031 H 
ENDBRANCH   1   9
BRANCH   1  13
ATOM     13  C5  <0> d          -1.328   1.812   0.018  0.00  0.00    -0.022 C 
ATOM     14  H9  <0> d          -1.853   1.605   0.951  0.00  0.00     0.043 H 
ATOM     15  H10 <0> d          -1.145   2.883  -0.066  0.00  0.00     0.043 H 
BRANCH  13  16
ATOM     16  C6  <0> d          -0.013   1.076   0.008  0.00  0.00    -0.109 C 
ATOM     17  C7  <0> d           1.113   1.746   0.001  0.00  0.00    -0.125 C 
ATOM     18  H12 <0> d           1.098   2.826   0.007  0.00  0.00     0.066 H 
ATOM     19  H13 <0> d           2.055   1.219  -0.011  0.00  0.00     0.066 H 
ATOM     20  H11 <0> d           0.002  -0.004   0.002  0.00  0.00     0.075 H 
ENDBRANCH  13  16
ENDBRANCH   1  13
BRANCH   1  21
ATOM     21  O1  <0> d          -2.519  -0.033  -0.991  0.00  0.00    -0.390 OA
ATOM     22  H14 <0> d          -3.020  -0.219  -0.185  0.00  0.00     0.210 HD
ENDBRANCH   1  21
TORSDOF 6
