REMARK  1 active torsions:
REMARK  status: ('A' for Active; 'I' for Inactive)
REMARK    1  A    between atoms: C4_9  and  N6_10 
ROOT
ATOM      1  C1  <0> d           4.084  -0.498  -0.040  0.00  0.00    -0.034 A 
ATOM      2  C2  <0> d           3.469   0.715  -0.027  0.00  0.00    -0.030 A 
ATOM      3  C3  <0> d           2.063   0.770  -0.013  0.00  0.00     0.196 A 
ATOM      4  N1  <0> d           1.180   1.759   0.000  0.00  0.00    -0.107 NA
ATOM      5  N2  <0> d          -0.015   1.286   0.009  0.00  0.00    -0.021 NA
ATOM      6  N3  <0> d           0.002  -0.004   0.002  0.00  0.00    -0.021 NA
ATOM      7  N4  <0> d           1.347  -0.396  -0.013  0.00  0.00    -0.108 N 
ATOM      8  N5  <0> d           2.004  -1.625  -0.026  0.00  0.00    -0.129 NA
ATOM      9  C4  <0> d           3.318  -1.678  -0.039  0.00  0.00     0.143 A 
ATOM     10  H1  <0> d           5.162  -0.555  -0.050  0.00  0.00     0.089 H 
ATOM     11  H2  <0> d           4.052   1.624  -0.028  0.00  0.00     0.089 H 
ENDROOT
BRANCH   9  12
ATOM     12  N6  <0> d           3.957  -2.913  -0.052  0.00  0.00    -0.383 N 
ATOM     13  H3  <0> d           4.925  -2.957  -0.062  0.00  0.00     0.157 HD
ATOM     14  H4  <0> d           3.433  -3.729  -0.052  0.00  0.00     0.157 HD
ENDBRANCH   9  12
TORSDOF 1
