REMARK  6 active torsions:
REMARK  status: ('A' for Active; 'I' for Inactive)
REMARK    1  A    between atoms: C1_1  and  C2_2 
REMARK    2  A    between atoms: C1_1  and  O4_9 
REMARK    3  A    between atoms: C2_2  and  C3_4 
REMARK    4  A    between atoms: C2_2  and  O3_8 
REMARK    5  A    between atoms: C3_4  and  C4_6 
REMARK    6  A    between atoms: C4_6  and  O2_7 
ROOT
ATOM      1  C2  <0> d          -1.667  -2.011   0.007  0.00  0.00     0.115 C 
ATOM      2  H1  <0> d          -1.018  -2.458  -0.608  0.00  0.00     0.098 H 
ENDROOT
BRANCH   1   3
ATOM      3  C1  <0> d          -1.493  -2.564   1.423  0.00  0.00     0.047 C 
ATOM      4  H2  <0> d          -0.506  -2.293   1.800  0.00  0.00     0.078 H 
ATOM      5  H3  <0> d          -2.259  -2.142   2.075  0.00  0.00     0.078 H 
BRANCH   3   6
ATOM      6  O4  <0> d          -1.620  -3.987   1.398  0.00  0.00    -0.398 OA
ATOM      7  H8  <0> d          -1.521  -4.406   2.264  0.00  0.00     0.209 HD
ENDBRANCH   3   6
ENDBRANCH   1   3
BRANCH   1   8
ATOM      8  C3  <0> d          -1.412  -0.526   0.013  0.00  0.00     0.180 C 
ATOM      9  O1  <0> d          -2.340   0.246   0.026  0.00  0.00    -0.293 OA
BRANCH   8  10
ATOM     10  C4  <0> d           0.002  -0.004   0.002  0.00  0.00     0.074 C 
ATOM     11  H4  <0> d           0.470  -0.327  -0.821  0.00  0.00     0.085 H 
ATOM     12  H5  <0> d           0.529  -0.365   0.885  0.00  0.00     0.085 H 
BRANCH  10  13
ATOM     13  O2  <0> d          -0.017   1.425   0.010  0.00  0.00    -0.393 OA
ATOM     14  H6  <0> d           0.861   1.830   0.004  0.00  0.00     0.209 HD
ENDBRANCH  10  13
ENDBRANCH   8  10
ENDBRANCH   1   8
BRANCH   1  15
ATOM     15  O3  <0> d          -3.000  -2.264  -0.442  0.00  0.00    -0.386 OA
ATOM     16  H7  <0> d          -3.684  -1.859   0.108  0.00  0.00     0.210 HD
ENDBRANCH   1  15
TORSDOF 6
