REMARK  4 active torsions:
REMARK  status: ('A' for Active; 'I' for Inactive)
REMARK    1  A    between atoms: C1_1  and  C2_2 
REMARK    2  A    between atoms: C2_2  and  C3_3 
REMARK    3  A    between atoms: C2_2  and  C4_4 
REMARK    4  A    between atoms: C2_2  and  N1_7 
ROOT
ATOM      1  C2  <0> d           0.002  -0.004   0.002  0.00  0.00     0.137 C 
ENDROOT
BRANCH   1   2
ATOM      2  C1  <0> d          -0.019   1.526   0.010  0.00  0.00    -0.042 C 
ATOM      3  H1  <0> d           1.004   1.903   0.003  0.00  0.00     0.031 H 
ATOM      4  H2  <0> d          -0.546   1.887  -0.873  0.00  0.00     0.031 H 
ATOM      5  H3  <0> d          -0.529   1.877   0.907  0.00  0.00     0.031 H 
ENDBRANCH   1   2
BRANCH   1   6
ATOM      6  C3  <0> d           0.742  -0.511   1.242  0.00  0.00    -0.042 C 
ATOM      7  H4  <0> d           0.232  -0.159   2.138  0.00  0.00     0.031 H 
ATOM      8  H5  <0> d           0.757  -1.601   1.236  0.00  0.00     0.031 H 
ATOM      9  H6  <0> d           1.765  -0.134   1.234  0.00  0.00     0.031 H 
ENDBRANCH   1   6
BRANCH   1  10
ATOM     10  C4  <0> d          -1.412  -0.526   0.013  0.00  0.00     0.203 C 
ATOM     11  O1  <0> d          -1.810  -1.227  -0.902  0.00  0.00    -0.646 OA
ATOM     12  O2  <0> d          -2.158  -0.246   0.936  0.00  0.00    -0.646 OA
ENDBRANCH   1  10
BRANCH   1  13
ATOM     13  N1  <0> d           0.688  -0.476  -1.203  0.00  0.00    -0.242 N 
ATOM     14  N3  <0> d           0.992   0.277  -2.349  0.00  0.00    -0.163 NA
ATOM     15  C6  <0> d           1.605  -0.527  -3.178  0.00  0.00     0.107 A 
ATOM     16  N2  <0> d           1.693  -1.735  -2.623  0.00  0.00    -0.234 NA
ATOM     17  H8  <0> d           1.975  -0.256  -4.155  0.00  0.00     0.149 H 
ATOM     18  C5  <0> d           1.145  -1.719  -1.435  0.00  0.00     0.085 A 
ATOM     19  H7  <0> d           1.074  -2.558  -0.758  0.00  0.00     0.146 H 
ENDBRANCH   1  13
TORSDOF 4
