REMARK  4 active torsions:
REMARK  status: ('A' for Active; 'I' for Inactive)
REMARK    1  A    between atoms: C1_1  and  C2_2 
REMARK    2  A    between atoms: C2_2  and  N1_3 
REMARK    3  A    between atoms: C3_4  and  C6_9 
REMARK    4  A    between atoms: C5_6  and  N3_8 
ROOT
ATOM      1  N1  <0> d          -0.698   1.558   1.213  0.00  0.00    -0.262 N 
ATOM      2  C3  <0> d          -1.701   0.907   1.877  0.00  0.00     0.132 A 
ATOM      3  C4  <0> d          -2.058   1.697   2.951  0.00  0.00    -0.003 A 
ATOM      4  C5  <0> d          -1.251   2.839   2.924  0.00  0.00     0.143 A 
ATOM      5  N2  <0> d          -0.440   2.754   1.894  0.00  0.00    -0.154 NA
ATOM      6  H6  <0> d          -2.822   1.474   3.681  0.00  0.00     0.093 H 
ENDROOT
BRANCH   1   7
ATOM      7  C2  <0> d          -0.013   1.086   0.008  0.00  0.00     0.014 C 
ATOM      8  H4  <0> d           0.002  -0.004   0.002  0.00  0.00     0.066 H 
ATOM      9  H5  <0> d           1.010   1.463   0.000  0.00  0.00     0.066 H 
BRANCH   7  10
ATOM     10  C1  <0> d          -0.753   1.593  -1.232  0.00  0.00    -0.059 C 
ATOM     11  H1  <0> d          -1.775   1.215  -1.224  0.00  0.00     0.029 H 
ATOM     12  H2  <0> d          -0.767   2.683  -1.226  0.00  0.00     0.029 H 
ATOM     13  H3  <0> d          -0.242   1.241  -2.128  0.00  0.00     0.029 H 
ENDBRANCH   7  10
ENDBRANCH   1   7
BRANCH   2  14
ATOM     14  C6  <0> d          -2.289  -0.391   1.514  0.00  0.00     0.228 C 
ATOM     15  O1  <0> d          -3.181  -0.864   2.191  0.00  0.00    -0.643 OA
ATOM     16  O2  <0> d          -1.839  -1.055   0.431  0.00  0.00    -0.643 OA
ENDBRANCH   2  14
BRANCH   4  17
ATOM     17  N3  <0> d          -1.296   3.894   3.843  0.00  0.00    -0.383 N 
ATOM     18  H7  <0> d          -1.929   3.869   4.579  0.00  0.00     0.157 HD
ATOM     19  H8  <0> d          -0.696   4.649   3.745  0.00  0.00     0.157 HD
ENDBRANCH   4  17
TORSDOF 4
