REMARK  0 active torsions:
REMARK  status: ('A' for Active; 'I' for Inactive)
ROOT
ATOM      1  C1  <0> d          -0.013   1.076   0.008  0.00  0.00    -0.065 A 
ATOM      2  C2  <0> d          -1.216   1.759   0.017  0.00  0.00    -0.060 A 
ATOM      3  C3  <0> d          -1.185   3.159   0.030  0.00  0.00     0.062 A 
ATOM      4  C4  <0> d           0.053   3.805   0.021  0.00  0.00     0.022 A 
ATOM      5  N1  <0> d           1.171   3.110   0.008  0.00  0.00    -0.272 NA
ATOM      6  C5  <0> d           1.171   1.791   0.001  0.00  0.00     0.002 A 
ATOM      7  C6  <0> d          -2.401   3.914   0.045  0.00  0.00     0.101 C 
ATOM      8  N2  <0> d          -3.366   4.513   0.058  0.00  0.00    -0.191 NA
ATOM      9  H1  <0> d           0.002  -0.004   0.002  0.00  0.00     0.085 H 
ATOM     10  H2  <0> d          -2.155   1.226   0.019  0.00  0.00     0.086 H 
ATOM     11  H3  <0> d           0.093   4.884   0.027  0.00  0.00     0.117 H 
ATOM     12  H4  <0> d           2.112   1.260  -0.011  0.00  0.00     0.114 H 
ENDROOT
TORSDOF 0
