REMARK  2 active torsions:
REMARK  status: ('A' for Active; 'I' for Inactive)
REMARK    1  A    between atoms: C1_1  and  C2_2 
REMARK    2  A    between atoms: C8_9  and  N2_11 
ROOT
ATOM      1  C2  <0> d           0.002  -0.004   0.002  0.00  0.00    -0.030 A 
ATOM      2  C3  <0> d           0.006  -0.689  -1.194  0.00  0.00    -0.075 A 
ATOM      3  C4  <0> d           0.025  -2.075  -1.208  0.00  0.00    -0.080 A 
ATOM      4  C5  <0> d           0.040  -2.787  -0.024  0.00  0.00    -0.048 A 
ATOM      5  C6  <0> d           0.036  -2.114   1.186  0.00  0.00     0.108 A 
ATOM      6  C7  <0> d           0.023  -0.711   1.205  0.00  0.00     0.101 A 
ATOM      7  N1  <0> d           0.030  -0.338   2.514  0.00  0.00    -0.206 NA
ATOM      8  C8  <0> d           0.052  -1.416   3.257  0.00  0.00     0.245 A 
ATOM      9  O1  <0> d           0.048  -2.513   2.479  0.00  0.00    -0.276 OA
ATOM     10  H4  <0> d          -0.006  -0.143  -2.125  0.00  0.00     0.084 H 
ATOM     11  H5  <0> d           0.027  -2.602  -2.150  0.00  0.00     0.083 H 
ATOM     12  H6  <0> d           0.054  -3.866  -0.043  0.00  0.00     0.087 H 
ENDROOT
BRANCH   1  13
ATOM     13  C1  <0> d          -0.018   1.503   0.010  0.00  0.00    -0.049 C 
ATOM     14  H1  <0> d           1.004   1.880   0.003  0.00  0.00     0.033 H 
ATOM     15  H2  <0> d          -0.545   1.864  -0.873  0.00  0.00     0.033 H 
ATOM     16  H3  <0> d          -0.529   1.854   0.907  0.00  0.00     0.033 H 
ENDBRANCH   1  13
BRANCH   8  17
ATOM     17  N2  <0> d           0.065  -1.425   4.633  0.00  0.00    -0.363 N 
ATOM     18  H7  <0> d           0.059  -0.588   5.124  0.00  0.00     0.159 HD
ATOM     19  H8  <0> d           0.081  -2.268   5.112  0.00  0.00     0.159 HD
ENDBRANCH   8  17
TORSDOF 2
