REMARK  4 active torsions:
REMARK  status: ('A' for Active; 'I' for Inactive)
REMARK    1  A    between atoms: C1_1  and  C2_2 
REMARK    2  A    between atoms: C2_2  and  C3_4 
REMARK    3  A    between atoms: C2_2  and  N2_8 
REMARK       I    between atoms: C3_4  and  N1_6 
REMARK    4  A    between atoms: N1_6  and  C4_7 
ROOT
ATOM      1  C2  <0> d           0.002  -0.004   0.002  0.00  0.00     0.107 C 
ATOM      2  H1  <0> d           0.529  -0.365   0.885  0.00  0.00     0.090 H 
ENDROOT
BRANCH   1   3
ATOM      3  C1  <0> d          -0.019   1.526   0.010  0.00  0.00    -0.047 C 
ATOM      4  H2  <0> d           1.004   1.903   0.003  0.00  0.00     0.030 H 
ATOM      5  H3  <0> d          -0.546   1.887  -0.873  0.00  0.00     0.030 H 
ATOM      6  H4  <0> d          -0.529   1.877   0.907  0.00  0.00     0.030 H 
ENDBRANCH   1   3
BRANCH   1   7
ATOM      7  C3  <0> d           0.707  -0.490  -1.238  0.00  0.00     0.241 C 
ATOM      8  O1  <0> d           0.120  -1.191  -2.034  0.00  0.00    -0.271 OA
ATOM      9  N1  <0> d           1.991  -0.146  -1.462  0.00  0.00    -0.364 N 
ATOM     10  H5  <0> d           2.461   0.415  -0.825  0.00  0.00     0.161 HD
BRANCH   9  11
ATOM     11  C4  <0> d           2.677  -0.618  -2.667  0.00  0.00    -0.018 C 
ATOM     12  H6  <0> d           3.700  -0.241  -2.675  0.00  0.00     0.056 H 
ATOM     13  H7  <0> d           2.692  -1.708  -2.673  0.00  0.00     0.056 H 
ATOM     14  H8  <0> d           2.150  -0.257  -3.550  0.00  0.00     0.056 H 
ENDBRANCH   9  11
ENDBRANCH   1   7
BRANCH   1  15
ATOM     15  N2  <0> d          -1.372  -0.511   0.012  0.00  0.00    -0.268 N 
ATOM     16  N3  <0> d          -1.818  -1.671   0.660  0.00  0.00    -0.184 NA
ATOM     17  C7  <0> d          -3.103  -1.790   0.445  0.00  0.00     0.023 A 
ATOM     18  C6  <0> d          -3.514  -0.718  -0.353  0.00  0.00    -0.048 A 
ATOM     19  H11 <0> d          -3.736  -2.583   0.816  0.00  0.00     0.117 H 
ATOM     20  C5  <0> d          -2.431   0.053  -0.605  0.00  0.00     0.001 A 
ATOM     21  H10 <0> d          -4.519  -0.537  -0.706  0.00  0.00     0.087 H 
ATOM     22  H9  <0> d          -2.417   0.958  -1.194  0.00  0.00     0.114 H 
ENDBRANCH   1  15
TORSDOF 4
