REMARK  2 active torsions:
REMARK  status: ('A' for Active; 'I' for Inactive)
REMARK    1  A    between atoms: C1_1  and  C2_2 
REMARK    2  A    between atoms: C3_5  and  C4_8 
ROOT
ATOM      1  C4  <0> d           0.002  -0.004  -0.007  0.00  0.00     0.011 A 
ATOM      2  C5  <0> d          -0.017   1.391  -0.001  0.00  0.00    -0.069 A 
ATOM      3  C6  <0> d           1.170   2.094  -0.012  0.00  0.00    -0.082 A 
ATOM      4  C7  <0> d           2.377   1.419  -0.029  0.00  0.00    -0.083 A 
ATOM      5  C8  <0> d           2.403   0.036  -0.035  0.00  0.00    -0.082 A 
ATOM      6  C9  <0> d           1.223  -0.679  -0.024  0.00  0.00    -0.069 A 
ATOM      7  H5  <0> d          -0.959   1.919   0.008  0.00  0.00     0.085 H 
ATOM      8  H6  <0> d           1.157   3.174  -0.007  0.00  0.00     0.083 H 
ATOM      9  H7  <0> d           3.304   1.974  -0.038  0.00  0.00     0.083 H 
ATOM     10  H8  <0> d           3.349  -0.486  -0.049  0.00  0.00     0.083 H 
ATOM     11  H9  <0> d           1.244  -1.759  -0.029  0.00  0.00     0.085 H 
ENDROOT
BRANCH   1  12
ATOM     12  C3  <0> d          -1.267  -0.764   0.005  0.00  0.00     0.156 A 
ATOM     13  N1  <0> d          -1.401  -2.126  -0.004  0.00  0.00    -0.212 NA
ATOM     14  C2  <0> d          -2.740  -2.368   0.017  0.00  0.00     0.144 A 
ATOM     15  N3  <0> d          -3.346  -1.211   0.038  0.00  0.00    -0.158 NA
ATOM     16  N2  <0> d          -2.481  -0.260   0.030  0.00  0.00    -0.259 N 
ATOM     17  H1  <0> d          -2.623   0.831   0.042  0.00  0.00     0.191 HD
BRANCH  14  18
ATOM     18  C1  <0> d          -3.402  -3.721   0.017  0.00  0.00    -0.018 C 
ATOM     19  H2  <0> d          -4.495  -3.595   0.037  0.00  0.00     0.038 H 
ATOM     20  H3  <0> d          -3.082  -4.286   0.904  0.00  0.00     0.038 H 
ATOM     21  H4  <0> d          -3.113  -4.270  -0.892  0.00  0.00     0.038 H 
ENDBRANCH  14  18
ENDBRANCH   1  12
TORSDOF 2
