REMARK  5 active torsions:
REMARK  status: ('A' for Active; 'I' for Inactive)
REMARK    1  A    between atoms: C1_1  and  C2_2 
REMARK    2  A    between atoms: C2_2  and  C3_3 
REMARK    3  A    between atoms: C2_2  and  C4_4 
REMARK    4  A    between atoms: C2_2  and  C5_5 
REMARK    5  A    between atoms: C10_11  and  O1_13 
ROOT
ATOM      1  C5  <0> d           2.107  -0.052  -1.265  0.00  0.00    -0.023 C 
ATOM      2  H1  <0> d           2.626  -0.436  -0.386  0.00  0.00     0.045 H 
ATOM      3  C6  <0> d           0.692  -0.631  -1.314  0.00  0.00    -0.059 C 
ATOM      4  C7  <0> d          -0.071  -0.222  -0.052  0.00  0.00    -0.065 C 
ATOM      5  C8  <0> d          -0.146   1.304   0.026  0.00  0.00    -0.063 C 
ATOM      6  C9  <0> d           1.269   1.883   0.075  0.00  0.00    -0.041 C 
ATOM      7  C10 <0> d           2.032   1.474  -1.186  0.00  0.00     0.040 C 
ATOM      8  H2  <0> d           3.040   1.886  -1.151  0.00  0.00     0.083 H 
ATOM      9  H12 <0> d           0.745  -1.718  -1.370  0.00  0.00     0.033 H 
ATOM     10  H13 <0> d           0.173  -0.247  -2.193  0.00  0.00     0.033 H 
ATOM     11  H14 <0> d           0.448  -0.606   0.826  0.00  0.00     0.033 H 
ATOM     12  H15 <0> d          -1.079  -0.634  -0.088  0.00  0.00     0.033 H 
ATOM     13  H16 <0> d          -0.665   1.688  -0.853  0.00  0.00     0.033 H 
ATOM     14  H17 <0> d          -0.690   1.595   0.925  0.00  0.00     0.033 H 
ATOM     15  H18 <0> d           1.216   2.970   0.131  0.00  0.00     0.036 H 
ATOM     16  H19 <0> d           1.788   1.499   0.954  0.00  0.00     0.036 H 
ENDROOT
BRANCH   1  17
ATOM     17  C2  <0> d           2.870  -0.461  -2.526  0.00  0.00    -0.045 C 
BRANCH  17  18
ATOM     18  C1  <0> d           2.062  -0.061  -3.763  0.00  0.00    -0.069 C 
ATOM     19  H3  <0> d           2.044   1.026  -3.848  0.00  0.00     0.028 H 
ATOM     20  H4  <0> d           2.525  -0.488  -4.653  0.00  0.00     0.028 H 
ATOM     21  H5  <0> d           1.043  -0.435  -3.668  0.00  0.00     0.028 H 
ENDBRANCH  17  18
BRANCH  17  22
ATOM     22  C3  <0> d           4.227   0.244  -2.553  0.00  0.00    -0.069 C 
ATOM     23  H6  <0> d           4.802  -0.041  -1.672  0.00  0.00     0.028 H 
ATOM     24  H7  <0> d           4.770  -0.047  -3.452  0.00  0.00     0.028 H 
ATOM     25  H8  <0> d           4.075   1.324  -2.554  0.00  0.00     0.028 H 
ENDBRANCH  17  22
BRANCH  17  26
ATOM     26  C4  <0> d           3.083  -1.976  -2.525  0.00  0.00    -0.069 C 
ATOM     27  H9  <0> d           2.115  -2.479  -2.506  0.00  0.00     0.028 H 
ATOM     28  H10 <0> d           3.626  -2.268  -3.424  0.00  0.00     0.028 H 
ATOM     29  H11 <0> d           3.658  -2.262  -1.645  0.00  0.00     0.028 H 
ENDBRANCH  17  26
ENDBRANCH   1  17
BRANCH   7  30
ATOM     30  O1  <0> d           1.352   1.977  -2.338  0.00  0.00    -0.395 OA
ATOM     31  H20 <0> d           1.267   2.940  -2.355  0.00  0.00     0.210 HD
ENDBRANCH   7  30
TORSDOF 5
