REMARK  2 active torsions:
REMARK  status: ('A' for Active; 'I' for Inactive)
REMARK    1  A    between atoms: C1_1  and  C2_2 
REMARK    2  A    between atoms: C6_7  and  C7_8 
REMARK       I    between atoms: C7_8  and  N2_10 
ROOT
ATOM      1  C2  <0> d           0.063  -0.095   0.037  0.00  0.00    -0.028 A 
ATOM      2  C3  <0> d          -0.041   1.267   0.276  0.00  0.00    -0.073 A 
ATOM      3  C4  <0> d           1.110   2.037   0.224  0.00  0.00    -0.065 A 
ATOM      4  C5  <0> d           2.321   1.429  -0.064  0.00  0.00     0.003 A 
ATOM      5  N1  <0> d           2.392   0.135  -0.287  0.00  0.00    -0.255 NA
ATOM      6  C6  <0> d           1.313  -0.638  -0.246  0.00  0.00     0.129 A 
ATOM      7  H4  <0> d          -0.998   1.718   0.494  0.00  0.00     0.084 H 
ATOM      8  H5  <0> d           1.063   3.101   0.405  0.00  0.00     0.085 H 
ATOM      9  H6  <0> d           3.220   2.026  -0.105  0.00  0.00     0.114 H 
ENDROOT
BRANCH   6  10
ATOM     10  C7  <0> d           1.441  -2.091  -0.504  0.00  0.00     0.268 C 
ATOM     11  O1  <0> d           0.447  -2.786  -0.572  0.00  0.00    -0.266 OA
ATOM     12  N2  <0> d           2.661  -2.643  -0.663  0.00  0.00    -0.365 N 
ATOM     13  H7  <0> d           3.454  -2.088  -0.609  0.00  0.00     0.159 HD
ATOM     14  H8  <0> d           2.744  -3.594  -0.832  0.00  0.00     0.159 HD
ENDBRANCH   6  10
BRANCH   1  15
ATOM     15  C1  <0> d          -1.160  -0.974   0.084  0.00  0.00    -0.049 C 
ATOM     16  H1  <0> d          -1.542  -1.119  -0.927  0.00  0.00     0.033 H 
ATOM     17  H2  <0> d          -0.897  -1.940   0.514  0.00  0.00     0.033 H 
ATOM     18  H3  <0> d          -1.926  -0.499   0.697  0.00  0.00     0.033 H 
ENDBRANCH   1  15
TORSDOF 2
