REMARK  1 active torsions:
REMARK  status: ('A' for Active; 'I' for Inactive)
REMARK    1  A    between atoms: C7_9  and  N3_10 
ROOT
ATOM      1  C1  <0> d          -2.389  -0.040   0.025  0.00  0.00    -0.053 A 
ATOM      2  C2  <0> d          -1.212  -0.720   0.010  0.00  0.00    -0.036 A 
ATOM      3  C3  <0> d           0.002  -0.004   0.002  0.00  0.00     0.133 A 
ATOM      4  N1  <0> d           1.269  -0.398  -0.012  0.00  0.00    -0.241 NA
ATOM      5  C4  <0> d           2.061   0.677  -0.014  0.00  0.00     0.020 A 
ATOM      6  C5  <0> d           1.286   1.784  -0.001  0.00  0.00     0.003 A 
ATOM      7  N2  <0> d          -0.017   1.365   0.009  0.00  0.00    -0.314 N 
ATOM      8  C6  <0> d          -1.204   2.043   0.030  0.00  0.00     0.011 A 
ATOM      9  C7  <0> d          -2.380   1.369   0.033  0.00  0.00     0.042 A 
ATOM     10  H1  <0> d          -3.326  -0.577   0.032  0.00  0.00     0.087 H 
ATOM     11  H2  <0> d          -1.207  -1.800   0.004  0.00  0.00     0.089 H 
ATOM     12  H3  <0> d           3.141   0.664  -0.024  0.00  0.00     0.117 H 
ATOM     13  H4  <0> d           1.630   2.808   0.001  0.00  0.00     0.114 H 
ATOM     14  H5  <0> d          -1.205   3.123   0.036  0.00  0.00     0.115 H 
ENDROOT
BRANCH   9  15
ATOM     15  N3  <0> d          -3.591   2.076   0.049  0.00  0.00    -0.398 N 
ATOM     16  H6  <0> d          -4.433   1.595   0.054  0.00  0.00     0.156 HD
ATOM     17  H7  <0> d          -3.586   3.046   0.054  0.00  0.00     0.156 HD
ENDBRANCH   9  15
TORSDOF 1
