REMARK  5 active torsions:
REMARK  status: ('A' for Active; 'I' for Inactive)
REMARK    1  A    between atoms: C1_1  and  N1_2 
REMARK    2  A    between atoms: N1_2  and  C2_3 
REMARK    3  A    between atoms: N1_2  and  C3_4 
REMARK    4  A    between atoms: C7_8  and  C9_10 
REMARK    5  A    between atoms: C9_10  and  O1_11 
ROOT
ATOM      1  C3  <0> d          -1.225   1.755   0.017  0.00  0.00     0.029 A 
ATOM      2  C4  <0> d          -0.013   1.076   0.008  0.00  0.00    -0.057 A 
ATOM      3  C5  <0> d           1.173   1.783   0.000  0.00  0.00    -0.080 A 
ATOM      4  C6  <0> d           1.155   3.166   0.007  0.00  0.00    -0.075 A 
ATOM      5  C7  <0> d          -0.049   3.845   0.021  0.00  0.00    -0.033 A 
ATOM      6  C8  <0> d          -1.239   3.144   0.029  0.00  0.00    -0.049 A 
ATOM      7  H7  <0> d           0.002  -0.004   0.002  0.00  0.00     0.086 H 
ATOM      8  H8  <0> d           2.116   1.256  -0.011  0.00  0.00     0.083 H 
ATOM      9  H9  <0> d           2.084   3.717   0.001  0.00  0.00     0.084 H 
ATOM     10  H10 <0> d          -2.179   3.675   0.041  0.00  0.00     0.087 H 
ENDROOT
BRANCH   1  11
ATOM     11  N1  <0> d          -2.426   1.042   0.020  0.00  0.00    -0.390 N 
BRANCH  11  12
ATOM     12  C1  <0> d          -2.409  -0.422   0.012  0.00  0.00    -0.019 C 
ATOM     13  H1  <0> d          -2.400  -0.791   1.038  0.00  0.00     0.056 H 
ATOM     14  H2  <0> d          -3.297  -0.793  -0.499  0.00  0.00     0.056 H 
ATOM     15  H3  <0> d          -1.517  -0.773  -0.508  0.00  0.00     0.056 H 
ENDBRANCH  11  12
BRANCH  11  16
ATOM     16  C2  <0> d          -3.703   1.760   0.030  0.00  0.00    -0.019 C 
ATOM     17  H4  <0> d          -4.025   1.943  -0.996  0.00  0.00     0.056 H 
ATOM     18  H5  <0> d          -4.453   1.160   0.544  0.00  0.00     0.056 H 
ATOM     19  H6  <0> d          -3.581   2.711   0.548  0.00  0.00     0.056 H 
ENDBRANCH  11  16
ENDBRANCH   1  11
BRANCH   5  20
ATOM     20  C9  <0> d          -0.064   5.352   0.029  0.00  0.00     0.041 C 
ATOM     21  H11 <0> d          -0.952   5.704   0.552  0.00  0.00     0.081 H 
ATOM     22  H12 <0> d           0.828   5.721   0.536  0.00  0.00     0.081 H 
BRANCH  20  23
ATOM     23  O1  <0> d          -0.081   5.835  -1.316  0.00  0.00    -0.396 OA
ATOM     24  H13 <0> d          -0.090   6.799  -1.388  0.00  0.00     0.209 HD
ENDBRANCH  20  23
ENDBRANCH   5  20
TORSDOF 5
