REMARK  1 active torsions:
REMARK  status: ('A' for Active; 'I' for Inactive)
REMARK    1  A    between atoms: C1_1  and  C2_2 
ROOT
ATOM      1  C2  <0> d           0.646  -2.681  -0.018  0.00  0.00    -0.057 A 
ATOM      2  C3  <0> d          -0.693  -2.257  -0.003  0.00  0.00    -0.062 A 
ATOM      3  C4  <0> d          -0.990  -0.941   0.007  0.00  0.00    -0.013 A 
ATOM      4  N1  <0> d           0.002  -0.004   0.002  0.00  0.00    -0.316 N 
ATOM      5  C5  <0> d          -0.017   1.364   0.009  0.00  0.00     0.003 A 
ATOM      6  C6  <0> d           1.269   1.781  -0.001  0.00  0.00     0.020 A 
ATOM      7  N2  <0> d           2.064   0.709  -0.014  0.00  0.00    -0.241 NA
ATOM      8  C7  <0> d           1.318  -0.387  -0.013  0.00  0.00     0.133 A 
ATOM      9  C8  <0> d           1.645  -1.758  -0.023  0.00  0.00    -0.032 A 
ATOM     10  H4  <0> d          -1.488  -2.988   0.001  0.00  0.00     0.086 H 
ATOM     11  H5  <0> d          -2.023  -0.626   0.018  0.00  0.00     0.112 H 
ATOM     12  H6  <0> d          -0.894   1.993   0.017  0.00  0.00     0.114 H 
ATOM     13  H7  <0> d           1.598   2.809   0.002  0.00  0.00     0.117 H 
ATOM     14  H8  <0> d           2.678  -2.072  -0.034  0.00  0.00     0.090 H 
ENDROOT
BRANCH   1  15
ATOM     15  C1  <0> d           0.975  -4.152  -0.029  0.00  0.00    -0.051 C 
ATOM     16  H1  <0> d           1.064  -4.512   0.996  0.00  0.00     0.033 H 
ATOM     17  H2  <0> d           0.180  -4.698  -0.538  0.00  0.00     0.033 H 
ATOM     18  H3  <0> d           1.917  -4.310  -0.553  0.00  0.00     0.033 H 
ENDBRANCH   1  15
TORSDOF 1
