REMARK  3 active torsions:
REMARK  status: ('A' for Active; 'I' for Inactive)
REMARK    1  A    between atoms: C1_1  and  O1_2 
REMARK    2  A    between atoms: O1_2  and  C2_3 
REMARK    3  A    between atoms: C2_3  and  C3_5 
ROOT
ATOM      1  C3  <0> d           0.657  -2.104  -1.120  0.00  0.00     0.096 C 
ATOM      2  H1  <0> d          -0.290  -2.519  -0.778  0.00  0.00     0.088 H 
ATOM      3  C4  <0> d           1.785  -2.612  -0.221  0.00  0.00    -0.037 C 
ATOM      4  C5  <0> d           1.981  -4.111  -0.478  0.00  0.00    -0.055 C 
ATOM      5  C6  <0> d           2.527  -4.291  -1.896  0.00  0.00     0.009 C 
ATOM      6  C7  <0> d           1.702  -3.496  -2.867  0.00  0.00     0.218 C 
ATOM      7  O3  <0> d           1.781  -3.769  -4.046  0.00  0.00    -0.274 OA
ATOM      8  N1  <0> d           0.891  -2.506  -2.501  0.00  0.00    -0.347 N 
ATOM      9  H5  <0> d           2.707  -2.078  -0.453  0.00  0.00     0.036 H 
ATOM     10  H6  <0> d           1.520  -2.451   0.825  0.00  0.00     0.036 H 
ATOM     11  H7  <0> d           2.690  -4.517   0.243  0.00  0.00     0.033 H 
ATOM     12  H8  <0> d           1.025  -4.627  -0.385  0.00  0.00     0.033 H 
ATOM     13  H9  <0> d           3.561  -3.946  -1.933  0.00  0.00     0.047 H 
ATOM     14  H10 <0> d           2.490  -5.346  -2.168  0.00  0.00     0.047 H 
ATOM     15  H11 <0> d           0.422  -2.025  -3.200  0.00  0.00     0.163 HD
ENDROOT
BRANCH   1  16
ATOM     16  C2  <0> d           0.598  -0.600  -1.043  0.00  0.00     0.281 C 
ATOM     17  O2  <0> d           1.088   0.070  -1.921  0.00  0.00    -0.263 OA
BRANCH  16  18
ATOM     18  O1  <0> d           0.002  -0.004   0.002  0.00  0.00    -0.325 OA
BRANCH  18  19
ATOM     19  C1  <0> d          -0.017   1.425   0.010  0.00  0.00     0.013 C 
ATOM     20  H2  <0> d           1.005   1.802   0.002  0.00  0.00     0.067 H 
ATOM     21  H3  <0> d          -0.544   1.786  -0.873  0.00  0.00     0.067 H 
ATOM     22  H4  <0> d          -0.527   1.776   0.907  0.00  0.00     0.067 H 
ENDBRANCH  18  19
ENDBRANCH  16  18
ENDBRANCH   1  16
TORSDOF 3
