REMARK  6 active torsions:
REMARK  status: ('A' for Active; 'I' for Inactive)
REMARK    1  A    between atoms: C1_1  and  O1_2 
REMARK    2  A    between atoms: O1_2  and  C2_3 
REMARK    3  A    between atoms: C2_3  and  C3_5 
REMARK    4  A    between atoms: C3_5  and  C4_7 
REMARK    5  A    between atoms: C3_5  and  O4_9 
REMARK    6  A    between atoms: C4_7  and  O3_8 
ROOT
ATOM      1  C3  <0> d           0.679  -2.115   1.088  0.00  0.00     0.139 C 
ATOM      2  H1  <0> d           1.119  -2.498   0.168  0.00  0.00     0.102 H 
ENDROOT
BRANCH   1   3
ATOM      3  C2  <0> d           0.618  -0.611   1.029  0.00  0.00     0.289 C 
ATOM      4  O2  <0> d           1.124   0.049   1.905  0.00  0.00    -0.262 OA
BRANCH   3   5
ATOM      5  O1  <0> d           0.002  -0.004   0.002  0.00  0.00    -0.324 OA
BRANCH   5   6
ATOM      6  C1  <0> d          -0.017   1.425   0.010  0.00  0.00     0.013 C 
ATOM      7  H2  <0> d           1.005   1.802   0.002  0.00  0.00     0.067 H 
ATOM      8  H3  <0> d          -0.544   1.786  -0.873  0.00  0.00     0.067 H 
ATOM      9  H4  <0> d          -0.527   1.776   0.907  0.00  0.00     0.067 H 
ENDBRANCH   5   6
ENDBRANCH   3   5
ENDBRANCH   1   3
BRANCH   1  10
ATOM     10  C4  <0> d          -0.736  -2.677   1.248  0.00  0.00     0.049 C 
ATOM     11  H5  <0> d          -1.143  -2.366   2.211  0.00  0.00     0.078 H 
ATOM     12  H6  <0> d          -1.369  -2.299   0.446  0.00  0.00     0.078 H 
BRANCH  10  13
ATOM     13  O3  <0> d          -0.691  -4.104   1.188  0.00  0.00    -0.398 OA
ATOM     14  H7  <0> d          -1.555  -4.528   1.283  0.00  0.00     0.209 HD
ENDBRANCH  10  13
ENDBRANCH   1  10
BRANCH   1  15
ATOM     15  O4  <0> d           1.479  -2.516   2.202  0.00  0.00    -0.383 OA
ATOM     16  H8  <0> d           1.145  -2.210   3.057  0.00  0.00     0.210 HD
ENDBRANCH   1  15
TORSDOF 6
