REMARK  0 active torsions:
REMARK  status: ('A' for Active; 'I' for Inactive)
ROOT
ATOM      1  C1  <0> d          -0.018   1.475   0.010  0.00  0.00     0.022 C 
ATOM      2  C2  <0> d           1.434   1.969  -0.001  0.00  0.00     0.013 C 
ATOM      3  N1  <0> d           2.141   1.488   1.197  0.00  0.00    -0.198 NA
ATOM      4  N2  <0> d           1.978   0.148   1.358  0.00  0.00     0.002 N 
ATOM      5  C3  <0> d           0.977  -0.583   0.805  0.00  0.00     0.755 A 
ATOM      6  N3  <0> d           1.143  -1.820   1.177  0.00  0.00     0.066 NA
ATOM      7  N4  <0> d           2.184  -1.923   1.930  0.00  0.00    -0.007 NA
ATOM      8  N5  <0> d           2.743  -0.767   2.085  0.00  0.00    -0.013 NA
ATOM      9  N6  <0> d           0.002  -0.004   0.002  0.00  0.00    -0.219 N 
ATOM     10  H1  <0> d          -0.521   1.832   0.909  0.00  0.00     0.066 H 
ATOM     11  H2  <0> d          -0.538   1.841  -0.875  0.00  0.00     0.066 H 
ATOM     12  H3  <0> d           1.937   1.593  -0.892  0.00  0.00     0.060 H 
ATOM     13  H4  <0> d           1.445   3.059  -0.015  0.00  0.00     0.060 H 
ATOM     14  H5  <0> d           3.119   1.732   1.161  0.00  0.00     0.149 HD
ATOM     15  H6  <0> d          -0.619  -0.531  -0.525  0.00  0.00     0.178 HD
ENDROOT
TORSDOF 0
