REMARK  5 active torsions:
REMARK  status: ('A' for Active; 'I' for Inactive)
REMARK    1  A    between atoms: C1_1  and  C2_2 
REMARK    2  A    between atoms: C2_2  and  C3_3 
REMARK    3  A    between atoms: C3_3  and  C4_4 
REMARK    4  A    between atoms: C5_5  and  O2_11 
REMARK    5  A    between atoms: C9_9  and  O1_10 
ROOT
ATOM      1  C4  <0> d          -0.018   1.503   0.010  0.00  0.00     0.008 A 
ATOM      2  C5  <0> d          -1.228   2.181   0.020  0.00  0.00     0.074 A 
ATOM      3  C6  <0> d          -1.244   3.568   0.033  0.00  0.00    -0.050 A 
ATOM      4  C7  <0> d          -0.056   4.274   0.026  0.00  0.00    -0.078 A 
ATOM      5  C8  <0> d           1.151   3.601   0.011  0.00  0.00    -0.050 A 
ATOM      6  C9  <0> d           1.172   2.213   0.003  0.00  0.00     0.074 A 
ATOM      7  H8  <0> d          -2.186   4.097   0.045  0.00  0.00     0.087 H 
ATOM      8  H9  <0> d          -0.071   5.354   0.031  0.00  0.00     0.083 H 
ATOM      9  H10 <0> d           2.078   4.155   0.005  0.00  0.00     0.087 H 
ENDROOT
BRANCH   1  10
ATOM     10  C3  <0> d           0.002  -0.004   0.002  0.00  0.00    -0.036 C 
ATOM     11  H6  <0> d          -0.888  -0.377  -0.505  0.00  0.00     0.040 H 
ATOM     12  H7  <0> d           0.892  -0.352  -0.522  0.00  0.00     0.040 H 
BRANCH  10  13
ATOM     13  C2  <0> d           0.023  -0.522   1.442  0.00  0.00    -0.065 C 
ATOM     14  H4  <0> d           0.913  -0.149   1.949  0.00  0.00     0.032 H 
ATOM     15  H5  <0> d          -0.867  -0.173   1.966  0.00  0.00     0.032 H 
BRANCH  13  16
ATOM     16  C1  <0> d           0.043  -2.052   1.433  0.00  0.00    -0.076 C 
ATOM     17  H1  <0> d          -0.846  -2.424   0.926  0.00  0.00     0.027 H 
ATOM     18  H2  <0> d           0.933  -2.400   0.909  0.00  0.00     0.027 H 
ATOM     19  H3  <0> d           0.058  -2.420   2.459  0.00  0.00     0.027 H 
ENDBRANCH  13  16
ENDBRANCH  10  13
ENDBRANCH   1  10
BRANCH   6  20
ATOM     20  O1  <0> d           2.359   1.552  -0.012  0.00  0.00    -0.360 OA
ATOM     21  H11 <0> d           2.694   1.365  -0.899  0.00  0.00     0.217 HD
ENDBRANCH   6  20
BRANCH   2  22
ATOM     22  O2  <0> d          -2.396   1.487   0.021  0.00  0.00    -0.360 OA
ATOM     23  H12 <0> d          -2.730   1.281   0.905  0.00  0.00     0.217 HD
ENDBRANCH   2  22
TORSDOF 5
