REMARK  3 active torsions:
REMARK  status: ('A' for Active; 'I' for Inactive)
REMARK    1  A    between atoms: C1_1  and  C2_2 
REMARK    2  A    between atoms: C2_2  and  C3_3 
REMARK    3  A    between atoms: C5_7  and  C6_9 
ROOT
ATOM      1  C3  <0> d           1.497   1.760  -0.003  0.00  0.00     0.055 C 
ATOM      2  H1  <0> d           1.851   1.931  -1.020  0.00  0.00     0.079 H 
ATOM      3  C4  <0> d          -0.018   1.438   0.010  0.00  0.00     0.048 C 
ATOM      4  O1  <0> d           0.002  -0.004   0.002  0.00  0.00    -0.336 OA
ATOM      5  C5  <0> d           1.178  -0.400   0.523  0.00  0.00     0.131 C 
ATOM      6  N1  <0> d           2.076   0.522   0.555  0.00  0.00    -0.264 NA
ATOM      7  H7  <0> d          -0.508   1.829  -0.881  0.00  0.00     0.078 H 
ATOM      8  H8  <0> d          -0.491   1.819   0.915  0.00  0.00     0.078 H 
ENDROOT
BRANCH   1   9
ATOM      9  C2  <0> d           1.809   2.961   0.892  0.00  0.00    -0.045 C 
ATOM     10  H5  <0> d           1.197   3.809   0.588  0.00  0.00     0.035 H 
ATOM     11  H6  <0> d           1.590   2.708   1.930  0.00  0.00     0.035 H 
BRANCH   9  12
ATOM     12  C1  <0> d           3.289   3.326   0.759  0.00  0.00    -0.075 C 
ATOM     13  H2  <0> d           3.901   2.477   1.063  0.00  0.00     0.027 H 
ATOM     14  H3  <0> d           3.508   3.579  -0.279  0.00  0.00     0.027 H 
ATOM     15  H4  <0> d           3.511   4.181   1.396  0.00  0.00     0.027 H 
ENDBRANCH   9  12
ENDBRANCH   1   9
BRANCH   5  16
ATOM     16  C6  <0> d           1.423  -1.799   1.026  0.00  0.00    -0.016 C 
ATOM     17  H9  <0> d           0.520  -2.395   0.895  0.00  0.00     0.038 H 
ATOM     18  H10 <0> d           2.240  -2.249   0.464  0.00  0.00     0.038 H 
ATOM     19  H11 <0> d           1.685  -1.765   2.083  0.00  0.00     0.038 H 
ENDBRANCH   5  16
TORSDOF 3
