REMARK  4 active torsions:
REMARK  status: ('A' for Active; 'I' for Inactive)
REMARK    1  A    between atoms: C1_1  and  C2_2 
REMARK    2  A    between atoms: N1_5  and  C5_7 
REMARK    3  A    between atoms: C5_7  and  C6_9 
REMARK    4  A    between atoms: C5_7  and  C7_10 
REMARK       I    between atoms: C7_10  and  N3_12 
ROOT
ATOM      1  C2  <0> d           2.096   0.748  -0.014  0.00  0.00     0.052 A 
ATOM      2  C3  <0> d           1.296  -0.399  -0.013  0.00  0.00    -0.041 A 
ATOM      3  C4  <0> d           0.002  -0.004   0.002  0.00  0.00     0.001 A 
ATOM      4  N1  <0> d          -0.016   1.345   0.009  0.00  0.00    -0.267 N 
ATOM      5  N2  <0> d           1.311   1.794  -0.001  0.00  0.00    -0.177 NA
ATOM      6  H5  <0> d           1.649  -1.420  -0.021  0.00  0.00     0.088 H 
ATOM      7  H6  <0> d          -0.862  -0.653   0.007  0.00  0.00     0.114 H 
ENDROOT
BRANCH   4   8
ATOM      8  C5  <0> d          -1.212   2.191   0.020  0.00  0.00     0.107 C 
ATOM      9  H1  <0> d          -0.969   3.159   0.458  0.00  0.00     0.090 H 
BRANCH   8  10
ATOM     10  C6  <0> d          -1.709   2.390  -1.414  0.00  0.00    -0.047 C 
ATOM     11  H7  <0> d          -2.599   3.020  -1.406  0.00  0.00     0.030 H 
ATOM     12  H8  <0> d          -0.929   2.871  -2.004  0.00  0.00     0.030 H 
ATOM     13  H9  <0> d          -1.952   1.423  -1.852  0.00  0.00     0.030 H 
ENDBRANCH   8  10
BRANCH   8  14
ATOM     14  C7  <0> d          -2.291   1.526   0.837  0.00  0.00     0.239 C 
ATOM     15  O1  <0> d          -2.080   0.452   1.359  0.00  0.00    -0.271 OA
ATOM     16  N3  <0> d          -3.488   2.126   0.987  0.00  0.00    -0.368 N 
ATOM     17  H10 <0> d          -3.656   2.985   0.570  0.00  0.00     0.159 HD
ATOM     18  H11 <0> d          -4.182   1.698   1.513  0.00  0.00     0.159 HD
ENDBRANCH   8  14
ENDBRANCH   4   8
BRANCH   1  19
ATOM     19  C1  <0> d           3.603   0.775  -0.028  0.00  0.00    -0.034 C 
ATOM     20  H2  <0> d           3.957   0.787  -1.059  0.00  0.00     0.035 H 
ATOM     21  H3  <0> d           3.955   1.669   0.487  0.00  0.00     0.035 H 
ATOM     22  H4  <0> d           3.987  -0.111   0.478  0.00  0.00     0.035 H 
ENDBRANCH   1  19
TORSDOF 4
