REMARK  3 active torsions:
REMARK  status: ('A' for Active; 'I' for Inactive)
REMARK    1  A    between atoms: C1_1  and  C2_2 
REMARK    2  A    between atoms: C2_2  and  C3_3 
REMARK    3  A    between atoms: C2_2  and  C4_4 
ROOT
ATOM      1  C2  <0> d           0.002  -0.004   0.002  0.00  0.00     0.000 C 
ATOM      2  H5  <0> d           0.512  -0.356  -0.895  0.00  0.00     0.051 H 
ENDROOT
BRANCH   1   3
ATOM      3  C1  <0> d          -0.019   1.526   0.010  0.00  0.00    -0.066 C 
ATOM      4  H2  <0> d           1.004   1.903   0.003  0.00  0.00     0.028 H 
ATOM      5  H3  <0> d          -0.546   1.887  -0.873  0.00  0.00     0.028 H 
ATOM      6  H4  <0> d          -0.529   1.877   0.907  0.00  0.00     0.028 H 
ENDBRANCH   1   3
BRANCH   1   7
ATOM      7  C3  <0> d           0.742  -0.511   1.242  0.00  0.00    -0.066 C 
ATOM      8  H6  <0> d           0.232  -0.159   2.138  0.00  0.00     0.028 H 
ATOM      9  H7  <0> d           0.757  -1.601   1.236  0.00  0.00     0.028 H 
ATOM     10  H8  <0> d           1.765  -0.134   1.234  0.00  0.00     0.028 H 
ENDBRANCH   1   7
BRANCH   1  11
ATOM     11  C4  <0> d          -1.412  -0.526   0.013  0.00  0.00     0.150 A 
ATOM     12  N3  <0> d          -1.949  -1.283  -0.908  0.00  0.00    -0.158 NA
ATOM     13  N2  <0> d          -3.270  -1.536  -0.504  0.00  0.00    -0.270 N 
ATOM     14  C5  <0> d          -3.441  -0.887   0.661  0.00  0.00     0.082 A 
ATOM     15  H1  <0> d          -3.929  -2.070  -0.974  0.00  0.00     0.190 HD
ATOM     16  N1  <0> d          -2.318  -0.285   0.959  0.00  0.00    -0.225 NA
ATOM     17  H9  <0> d          -4.347  -0.867   1.248  0.00  0.00     0.145 H 
ENDBRANCH   1  11
TORSDOF 3
