REMARK  1 active torsions:
REMARK  status: ('A' for Active; 'I' for Inactive)
REMARK    1  A    between atoms: C1_1  and  C2_2 
ROOT
ATOM      1  C2  <0> d           1.199  -0.652  -0.013  0.00  0.00    -0.057 A 
ATOM      2  C3  <0> d           2.391   0.089  -0.020  0.00  0.00    -0.060 A 
ATOM      3  C4  <0> d           2.353   1.440  -0.012  0.00  0.00     0.008 A 
ATOM      4  N1  <0> d           1.162   2.096   0.002  0.00  0.00    -0.205 N 
ATOM      5  C5  <0> d          -0.017   1.402   0.010  0.00  0.00     0.176 A 
ATOM      6  C6  <0> d           0.002  -0.004   0.002  0.00  0.00    -0.029 A 
ATOM      7  N2  <0> d          -0.989   2.304   0.019  0.00  0.00    -0.109 NA
ATOM      8  N3  <0> d          -0.493   3.490   0.025  0.00  0.00    -0.022 NA
ATOM      9  N4  <0> d           0.796   3.449   0.013  0.00  0.00    -0.040 NA
ATOM     10  H4  <0> d           3.342  -0.422  -0.032  0.00  0.00     0.086 H 
ATOM     11  H5  <0> d           3.274   2.003  -0.018  0.00  0.00     0.115 H 
ATOM     12  H6  <0> d          -0.922  -0.563   0.007  0.00  0.00     0.090 H 
ENDROOT
BRANCH   1  13
ATOM     13  C1  <0> d           1.245  -2.159  -0.021  0.00  0.00    -0.051 C 
ATOM     14  H1  <0> d           1.246  -2.517  -1.050  0.00  0.00     0.033 H 
ATOM     15  H2  <0> d           2.150  -2.497   0.482  0.00  0.00     0.033 H 
ATOM     16  H3  <0> d           0.371  -2.551   0.499  0.00  0.00     0.033 H 
ENDBRANCH   1  13
TORSDOF 1
