REMARK  6 active torsions:
REMARK  status: ('A' for Active; 'I' for Inactive)
REMARK    1  A    between atoms: C1_1  and  C2_2 
REMARK    2  A    between atoms: C3_3  and  C4_4 
REMARK    3  A    between atoms: C5_5  and  C6_6 
REMARK    4  A    between atoms: C6_6  and  O1_7 
REMARK    5  A    between atoms: O1_7  and  C7_8 
REMARK    6  A    between atoms: C7_8  and  C8_10 
ROOT
ATOM      1  C4  <0> d          -1.296   1.794   0.018  0.00  0.00    -0.085 C 
ATOM      2  C5  <0> d          -2.438   1.114   0.020  0.00  0.00    -0.080 C 
ATOM      3  H6  <0> d          -1.311   2.874   0.024  0.00  0.00     0.083 H 
ATOM      4  H7  <0> d          -2.423   0.034   0.014  0.00  0.00     0.080 H 
ENDROOT
BRANCH   2   5
ATOM      5  C6  <0> d          -3.753   1.850   0.030  0.00  0.00     0.044 C 
ATOM      6  H8  <0> d          -4.196   1.790   1.024  0.00  0.00     0.081 H 
ATOM      7  H9  <0> d          -3.587   2.895  -0.231  0.00  0.00     0.081 H 
BRANCH   5   8
ATOM      8  O1  <0> d          -4.653   1.246  -0.937  0.00  0.00    -0.318 OA
BRANCH   8   9
ATOM      9  C7  <0> d          -5.875   1.788  -1.053  0.00  0.00     0.255 C 
ATOM     10  O2  <0> d          -6.184   2.735  -0.369  0.00  0.00    -0.266 OA
BRANCH   9  11
ATOM     11  C8  <0> d          -6.864   1.216  -2.036  0.00  0.00     0.004 C 
ATOM     12  H10 <0> d          -6.410   0.373  -2.558  0.00  0.00     0.041 H 
ATOM     13  H11 <0> d          -7.752   0.877  -1.503  0.00  0.00     0.041 H 
ATOM     14  H12 <0> d          -7.144   1.982  -2.758  0.00  0.00     0.041 H 
ENDBRANCH   9  11
ENDBRANCH   8   9
ENDBRANCH   5   8
ENDBRANCH   2   5
BRANCH   1  15
ATOM     15  C3  <0> d          -0.013   1.076   0.008  0.00  0.00    -0.087 C 
ATOM     16  C2  <0> d           1.129   1.756   0.001  0.00  0.00    -0.107 C 
ATOM     17  H4  <0> d           1.114   2.836   0.007  0.00  0.00     0.076 H 
ATOM     18  H5  <0> d           0.002  -0.004   0.002  0.00  0.00     0.083 H 
BRANCH  16  19
ATOM     19  C1  <0> d           2.444   1.020  -0.016  0.00  0.00    -0.060 C 
ATOM     20  H1  <0> d           3.263   1.740  -0.020  0.00  0.00     0.032 H 
ATOM     21  H2  <0> d           2.519   0.390   0.870  0.00  0.00     0.032 H 
ATOM     22  H3  <0> d           2.502   0.399  -0.910  0.00  0.00     0.032 H 
ENDBRANCH  16  19
ENDBRANCH   1  15
TORSDOF 6
