REMARK  2 active torsions:
REMARK  status: ('A' for Active; 'I' for Inactive)
REMARK    1  A    between atoms: C1_1  and  C2_2 
REMARK    2  A    between atoms: C2_2  and  N1_3 
ROOT
ATOM      1  N1  <0> d          -0.698   1.558   1.213  0.00  0.00    -0.260 N 
ATOM      2  C3  <0> d          -1.700   0.909   1.877  0.00  0.00     0.134 A 
ATOM      3  C4  <0> d          -2.055   1.702   2.950  0.00  0.00    -0.027 A 
ATOM      4  C5  <0> d          -1.251   2.838   2.921  0.00  0.00     0.025 A 
ATOM      5  N2  <0> d          -0.441   2.754   1.895  0.00  0.00    -0.184 NA
ATOM      6  C6  <0> d          -2.274  -0.356   1.527  0.00  0.00     0.119 C 
ATOM      7  N3  <0> d          -2.729  -1.359   1.249  0.00  0.00    -0.190 NA
ATOM      8  H6  <0> d          -2.819   1.480   3.682  0.00  0.00     0.090 H 
ATOM      9  H7  <0> d          -1.286   3.652   3.629  0.00  0.00     0.117 H 
ENDROOT
BRANCH   1  10
ATOM     10  C2  <0> d          -0.013   1.086   0.008  0.00  0.00     0.015 C 
ATOM     11  H4  <0> d           0.002  -0.004   0.002  0.00  0.00     0.066 H 
ATOM     12  H5  <0> d           1.010   1.463   0.000  0.00  0.00     0.066 H 
BRANCH  10  13
ATOM     13  C1  <0> d          -0.753   1.593  -1.232  0.00  0.00    -0.059 C 
ATOM     14  H1  <0> d          -0.242   1.241  -2.128  0.00  0.00     0.029 H 
ATOM     15  H2  <0> d          -1.775   1.215  -1.224  0.00  0.00     0.029 H 
ATOM     16  H3  <0> d          -0.767   2.683  -1.226  0.00  0.00     0.029 H 
ENDBRANCH  10  13
ENDBRANCH   1  10
TORSDOF 2
