REMARK  1 active torsions:
REMARK  status: ('A' for Active; 'I' for Inactive)
REMARK    1  A    between atoms: C4_5  and  C7_11 
ROOT
ATOM      1  C1  <0> d          -0.760   1.596  -1.230  0.00  0.00    -0.045 C 
ATOM      2  C2  <0> d          -0.514   3.103  -1.355  0.00  0.00    -0.057 C 
ATOM      3  C3  <0> d          -0.863   3.790  -0.039  0.00  0.00    -0.013 A 
ATOM      4  H1  <0> d          -0.365   4.716  -0.364  0.00  0.00     0.045 H 
ATOM      5  C4  <0> d          -2.182   3.456   0.648  0.00  0.00     0.061 A 
ATOM      6  H2  <0> d          -3.125   2.981   0.341  0.00  0.00     0.061 H 
ATOM      7  C5  <0> d          -0.889   2.959   1.238  0.00  0.00     0.056 A 
ATOM      8  H3  <0> d          -0.358   3.001   2.201  0.00  0.00     0.085 H 
ATOM      9  O1  <0> d          -0.686   1.549   1.178  0.00  0.00    -0.385 OA
ATOM     10  C6  <0> d          -0.013   1.086   0.008  0.00  0.00     0.020 C 
ATOM     11  H4  <0> d          -0.384   1.078  -2.124  0.00  0.00     0.036 H 
ATOM     12  H5  <0> d          -1.836   1.399  -1.116  0.00  0.00     0.036 H 
ATOM     13  H6  <0> d           0.545   3.283  -1.592  0.00  0.00     0.033 H 
ATOM     14  H7  <0> d          -1.144   3.511  -2.159  0.00  0.00     0.033 H 
ATOM     15  H8  <0> d           0.003  -0.014  -0.001  0.00  0.00     0.074 H 
ATOM     16  H9  <0> d           1.019   1.468  -0.003  0.00  0.00     0.074 H 
ENDROOT
BRANCH   5  17
ATOM     17  C7  <0> d          -2.897   4.573   1.363  0.00  0.00     0.180 C 
ATOM     18  O2  <0> d          -2.421   5.684   1.377  0.00  0.00    -0.648 OA
ATOM     19  O3  <0> d          -4.062   4.335   1.986  0.00  0.00    -0.648 OA
ENDBRANCH   5  17
TORSDOF 1
