REMARK  1 active torsions:
REMARK  status: ('A' for Active; 'I' for Inactive)
REMARK    1  A    between atoms: C4_4  and  O1_8 
ROOT
ATOM      1  C1  <0> d          -0.017   1.383   0.010  0.00  0.00    -0.044 A 
ATOM      2  C2  <0> d           1.163   2.094   0.002  0.00  0.00    -0.057 A 
ATOM      3  C3  <0> d           2.385   1.416  -0.013  0.00  0.00     0.077 A 
ATOM      4  C4  <0> d           2.401   0.013  -0.021  0.00  0.00     0.089 A 
ATOM      5  C5  <0> d           1.206  -0.687  -0.013  0.00  0.00    -0.012 A 
ATOM      6  C6  <0> d           0.002  -0.004   0.002  0.00  0.00     0.119 A 
ATOM      7  F1  <0> d          -1.161  -0.692   0.009  0.00  0.00    -0.206 F 
ATOM      8  C7  <0> d           3.615   2.149  -0.021  0.00  0.00     0.102 C 
ATOM      9  N1  <0> d           4.591   2.731  -0.028  0.00  0.00    -0.191 NA
ATOM     10  H1  <0> d          -0.960   1.908   0.026  0.00  0.00     0.088 H 
ATOM     11  H2  <0> d           1.145   3.174   0.008  0.00  0.00     0.086 H 
ATOM     12  H3  <0> d           1.214  -1.767  -0.019  0.00  0.00     0.092 H 
ENDROOT
BRANCH   4  13
ATOM     13  O1  <0> d           3.582  -0.655  -0.036  0.00  0.00    -0.359 OA
ATOM     14  H4  <0> d           3.933  -0.853   0.843  0.00  0.00     0.217 HD
ENDBRANCH   4  13
TORSDOF 1
