REMARK  2 active torsions:
REMARK  status: ('A' for Active; 'I' for Inactive)
REMARK    1  A    between atoms: C1_1  and  C2_2 
REMARK    2  A    between atoms: C2_2  and  C3_3 
ROOT
ATOM      1  C3  <0> d          -1.106   1.758   0.016  0.00  0.00     0.123 A 
ATOM      2  N1  <0> d          -0.011   0.966   0.007  0.00  0.00    -0.283 N 
ATOM      3  H1  <0> d           0.002  -0.004   0.002  0.00  0.00     0.188 HD
ATOM      4  N2  <0> d           1.104   1.820   0.001  0.00  0.00    -0.248 N 
ATOM      5  H2  <0> d           2.038   1.557  -0.009  0.00  0.00     0.192 HD
ATOM      6  C4  <0> d           0.618   3.079   0.012  0.00  0.00     0.362 A 
ATOM      7  O1  <0> d           1.279   4.100   0.012  0.00  0.00    -0.243 OA
ATOM      8  N3  <0> d          -0.725   3.008   0.024  0.00  0.00    -0.178 NA
ENDROOT
BRANCH   1   9
ATOM      9  C2  <0> d          -2.535   1.277   0.019  0.00  0.00    -0.012 C 
ATOM     10  H6  <0> d          -2.719   0.680  -0.874  0.00  0.00     0.044 H 
ATOM     11  H7  <0> d          -2.712   0.669   0.906  0.00  0.00     0.044 H 
BRANCH   9  12
ATOM     12  C1  <0> d          -3.478   2.482   0.029  0.00  0.00    -0.070 C 
ATOM     13  H3  <0> d          -3.294   3.080   0.922  0.00  0.00     0.028 H 
ATOM     14  H4  <0> d          -3.301   3.090  -0.858  0.00  0.00     0.028 H 
ATOM     15  H5  <0> d          -4.511   2.135   0.032  0.00  0.00     0.028 H 
ENDBRANCH   9  12
ENDBRANCH   1   9
TORSDOF 2
