REMARK  3 active torsions:
REMARK  status: ('A' for Active; 'I' for Inactive)
REMARK    1  A    between atoms: C1_1  and  C2_2 
REMARK    2  A    between atoms: C5_7  and  N3_10 
REMARK    3  A    between atoms: N2_8  and  C6_9 
ROOT
ATOM      1  C2  <0> d          -1.185   1.746   0.017  0.00  0.00     0.030 A 
ATOM      2  C3  <0> d          -0.013   1.076   0.008  0.00  0.00     0.007 A 
ATOM      3  C4  <0> d           1.199   1.813   0.000  0.00  0.00     0.285 A 
ATOM      4  O1  <0> d           2.273   1.231  -0.013  0.00  0.00    -0.266 OA
ATOM      5  N1  <0> d           1.157   3.153   0.007  0.00  0.00    -0.024 NA
ATOM      6  C5  <0> d           0.004   3.789   0.021  0.00  0.00     0.703 A 
ATOM      7  N2  <0> d          -1.173   3.111   0.029  0.00  0.00    -0.190 N 
ATOM      8  H4  <0> d           0.002  -0.004   0.002  0.00  0.00     0.095 H 
ENDROOT
BRANCH   1   9
ATOM      9  C1  <0> d          -2.491   0.995   0.020  0.00  0.00    -0.037 C 
ATOM     10  H1  <0> d          -2.292  -0.086   0.009  0.00  0.00     0.035 H 
ATOM     11  H2  <0> d          -3.074   1.270  -0.872  0.00  0.00     0.035 H 
ATOM     12  H3  <0> d          -3.061   1.255   0.924  0.00  0.00     0.035 H 
ENDBRANCH   1   9
BRANCH   7  13
ATOM     13  C6  <0> d          -2.439   3.849   0.044  0.00  0.00     0.003 C 
ATOM     14  H5  <0> d          -2.233   4.930   0.051  0.00  0.00     0.058 H 
ATOM     15  H6  <0> d          -3.010   3.579   0.944  0.00  0.00     0.058 H 
ATOM     16  H7  <0> d          -3.023   3.594  -0.853  0.00  0.00     0.058 H 
ENDBRANCH   7  13
BRANCH   6  17
ATOM     17  N3  <0> d          -0.008   5.159   0.028  0.00  0.00    -0.232 N 
ATOM     18  H8  <0> d          -0.966   5.700   0.040  0.00  0.00     0.174 HD
ATOM     19  H9  <0> d           0.940   5.717   0.022  0.00  0.00     0.174 HD
ENDBRANCH   6  17
TORSDOF 3
