REMARK  8 active torsions:
REMARK  status: ('A' for Active; 'I' for Inactive)
REMARK    1  A    between atoms: C1_1  and  C2_2 
REMARK    2  A    between atoms: C2_2  and  O1_3 
REMARK    3  A    between atoms: O1_3  and  C3_4 
REMARK    4  A    between atoms: C3_4  and  C4_6 
REMARK    5  A    between atoms: C4_6  and  C5_7 
REMARK    6  A    between atoms: C5_7  and  C6_8 
REMARK    7  A    between atoms: C6_8  and  C7_9 
REMARK    8  A    between atoms: C7_9  and  C9_11 
ROOT
ATOM      1  C5  <0> d          -2.479   0.930   0.019  0.00  0.00    -0.053 C 
ATOM      2  H8  <0> d          -2.417   0.309  -0.875  0.00  0.00     0.034 H 
ATOM      3  H9  <0> d          -2.408   0.299   0.905  0.00  0.00     0.034 H 
ENDROOT
BRANCH   1   4
ATOM      4  C4  <0> d          -1.329   1.940   0.019  0.00  0.00     0.016 C 
ATOM      5  H6  <0> d          -1.391   2.561   0.913  0.00  0.00     0.048 H 
ATOM      6  H7  <0> d          -1.400   2.570  -0.867  0.00  0.00     0.048 H 
BRANCH   4   7
ATOM      7  C3  <0> d          -0.014   1.204   0.009  0.00  0.00     0.258 C 
ATOM      8  O2  <0> d           0.002  -0.004   0.002  0.00  0.00    -0.265 OA
BRANCH   7   9
ATOM      9  O1  <0> d           1.139   1.891   0.001  0.00  0.00    -0.322 OA
BRANCH   9  10
ATOM     10  C2  <0> d           2.367   1.117  -0.015  0.00  0.00     0.025 C 
ATOM     11  H4  <0> d           2.409   0.484   0.872  0.00  0.00     0.074 H 
ATOM     12  H5  <0> d           2.392   0.493  -0.908  0.00  0.00     0.074 H 
BRANCH  10  13
ATOM     13  C1  <0> d           3.568   2.065  -0.021  0.00  0.00    -0.056 C 
ATOM     14  H1  <0> d           3.543   2.689   0.873  0.00  0.00     0.030 H 
ATOM     15  H2  <0> d           4.490   1.484  -0.033  0.00  0.00     0.030 H 
ATOM     16  H3  <0> d           3.526   2.698  -0.907  0.00  0.00     0.030 H 
ENDBRANCH  10  13
ENDBRANCH   9  10
ENDBRANCH   7   9
ENDBRANCH   4   7
ENDBRANCH   1   4
BRANCH   1  17
ATOM     17  C6  <0> d          -3.814   1.677   0.029  0.00  0.00    -0.045 C 
ATOM     18  H10 <0> d          -3.876   2.298   0.923  0.00  0.00     0.039 H 
ATOM     19  H11 <0> d          -3.885   2.307  -0.857  0.00  0.00     0.039 H 
BRANCH  17  20
ATOM     20  C7  <0> d          -4.946   0.682   0.029  0.00  0.00    -0.093 C 
ATOM     21  C8  <0> d          -5.498   0.318   1.160  0.00  0.00    -0.119 C 
ATOM     22  H12 <0> d          -6.309  -0.395   1.160  0.00  0.00     0.067 H 
ATOM     23  H13 <0> d          -5.142   0.730   2.092  0.00  0.00     0.067 H 
BRANCH  20  24
ATOM     24  C9  <0> d          -5.443   0.106  -1.272  0.00  0.00    -0.055 C 
ATOM     25  H14 <0> d          -4.867   0.524  -2.098  0.00  0.00     0.033 H 
ATOM     26  H15 <0> d          -5.325  -0.977  -1.258  0.00  0.00     0.033 H 
ATOM     27  H16 <0> d          -6.497   0.355  -1.401  0.00  0.00     0.033 H 
ENDBRANCH  20  24
ENDBRANCH  17  20
ENDBRANCH   1  17
TORSDOF 8
