REMARK  4 active torsions:
REMARK  status: ('A' for Active; 'I' for Inactive)
REMARK    1  A    between atoms: C1_1  and  C2_2 
REMARK    2  A    between atoms: C3_4  and  O4_14 
REMARK    3  A    between atoms: C4_6  and  O3_13 
REMARK    4  A    between atoms: C6_9  and  O2_12 
ROOT
ATOM      1  C2  <0> d          -2.191   1.109   1.226  0.00  0.00     0.065 C 
ATOM      2  H1  <0> d          -2.721   1.495   2.097  0.00  0.00     0.086 H 
ATOM      3  C3  <0> d          -0.733   1.582   1.266  0.00  0.00     0.085 C 
ATOM      4  H2  <0> d          -0.705   2.671   1.296  0.00  0.00     0.090 H 
ATOM      5  C4  <0> d          -0.013   1.086   0.008  0.00  0.00     0.067 C 
ATOM      6  H3  <0> d           0.002  -0.004   0.002  0.00  0.00     0.087 H 
ATOM      7  C5  <0> d          -0.757   1.595  -1.230  0.00  0.00     0.007 C 
ATOM      8  C6  <0> d          -2.212   1.122  -1.172  0.00  0.00     0.131 C 
ATOM      9  H4  <0> d          -2.241   0.033  -1.193  0.00  0.00     0.128 H 
ATOM     10  O1  <0> d          -2.816   1.591   0.035  0.00  0.00    -0.354 OA
ATOM     11  H8  <0> d          -0.729   2.684  -1.250  0.00  0.00     0.044 H 
ATOM     12  H9  <0> d          -0.282   1.201  -2.128  0.00  0.00     0.044 H 
ENDROOT
BRANCH   1  13
ATOM     13  C1  <0> d          -2.232  -0.420   1.241  0.00  0.00    -0.050 C 
ATOM     14  H5  <0> d          -1.701  -0.806   0.370  0.00  0.00     0.031 H 
ATOM     15  H6  <0> d          -1.755  -0.788   2.149  0.00  0.00     0.031 H 
ATOM     16  H7  <0> d          -3.268  -0.756   1.213  0.00  0.00     0.031 H 
ENDBRANCH   1  13
BRANCH   3  17
ATOM     17  O4  <0> d          -0.088   1.053   2.426  0.00  0.00    -0.390 OA
ATOM     18  H12 <0> d           0.841   1.308   2.510  0.00  0.00     0.210 HD
ENDBRANCH   3  17
BRANCH   8  19
ATOM     19  O2  <0> d          -2.927   1.640  -2.295  0.00  0.00    -0.371 OA
ATOM     20  H10 <0> d          -3.858   1.379  -2.323  0.00  0.00     0.212 HD
ENDBRANCH   8  19
BRANCH   5  21
ATOM     21  O3  <0> d           1.327   1.582  -0.002  0.00  0.00    -0.393 OA
ATOM     22  H11 <0> d           1.842   1.309  -0.774  0.00  0.00     0.210 HD
ENDBRANCH   5  21
TORSDOF 4
