REMARK  3 active torsions:
REMARK  status: ('A' for Active; 'I' for Inactive)
REMARK    1  A    between atoms: C1_1  and  C2_2 
REMARK    2  A    between atoms: C3_3  and  C4_4 
REMARK    3  A    between atoms: C5_5  and  C6_6 
ROOT
ATOM      1  C2  <0> d           0.002  -0.004   0.002  0.00  0.00    -0.099 C 
ATOM      2  C3  <0> d          -1.145  -0.687   0.009  0.00  0.00    -0.036 C 
ATOM      3  H4  <0> d           0.945  -0.531  -0.010  0.00  0.00     0.077 H 
ATOM      4  H5  <0> d          -2.088  -0.160   0.021  0.00  0.00     0.097 H 
ENDROOT
BRANCH   2   5
ATOM      5  C4  <0> d          -1.126  -2.119   0.001  0.00  0.00    -0.067 C 
ATOM      6  C5  <0> d          -1.110  -3.293  -0.005  0.00  0.00     0.009 C 
BRANCH   6   7
ATOM      7  C6  <0> d          -1.090  -4.725  -0.013  0.00  0.00     0.258 C 
ATOM      8  O1  <0> d          -2.143  -5.352  -0.006  0.00  0.00    -0.637 OA
ATOM      9  O2  <0> d          -0.021  -5.323  -0.026  0.00  0.00    -0.637 OA
ENDBRANCH   6   7
ENDBRANCH   2   5
BRANCH   1  10
ATOM     10  C1  <0> d          -0.018   1.503   0.010  0.00  0.00    -0.059 C 
ATOM     11  H1  <0> d           1.004   1.880   0.003  0.00  0.00     0.032 H 
ATOM     12  H2  <0> d          -0.545   1.864  -0.873  0.00  0.00     0.032 H 
ATOM     13  H3  <0> d          -0.529   1.854   0.907  0.00  0.00     0.032 H 
ENDBRANCH   1  10
TORSDOF 3
