REMARK  0 active torsions:
REMARK  status: ('A' for Active; 'I' for Inactive)
ROOT
ATOM      1  C1  <0> d          -0.018   1.508   0.010  0.00  0.00    -0.035 A 
ATOM      2  C2  <0> d           1.436   1.921  -0.001  0.00  0.00    -0.099 A 
ATOM      3  C3  <0> d           2.153   0.804  -0.014  0.00  0.00    -0.086 A 
ATOM      4  C4  <0> d           1.278  -0.371  -0.012  0.00  0.00    -0.086 A 
ATOM      5  C5  <0> d           0.002  -0.004   0.002  0.00  0.00    -0.099 A 
ATOM      6  H1  <0> d          -0.509   1.875   0.912  0.00  0.00     0.044 H 
ATOM      7  H2  <0> d          -0.526   1.885  -0.878  0.00  0.00     0.044 H 
ATOM      8  H3  <0> d           1.819   2.931   0.000  0.00  0.00     0.076 H 
ATOM      9  H4  <0> d           3.232   0.766  -0.025  0.00  0.00     0.082 H 
ATOM     10  H5  <0> d           1.623  -1.394  -0.021  0.00  0.00     0.082 H 
ATOM     11  H6  <0> d          -0.856  -0.660   0.007  0.00  0.00     0.076 H 
ENDROOT
TORSDOF 0
