REMARK  0 active torsions:
REMARK  status: ('A' for Active; 'I' for Inactive)
ROOT
ATOM      1  C1  <0> d          -0.017   1.385   0.010  0.00  0.00    -0.081 A 
ATOM      2  C2  <0> d           1.139   2.108   0.003  0.00  0.00    -0.071 A 
ATOM      3  C3  <0> d           2.379   1.451  -0.013  0.00  0.00    -0.007 A 
ATOM      4  C4  <0> d           3.594   2.155  -0.020  0.00  0.00     0.013 A 
ATOM      5  N1  <0> d           4.731   1.499  -0.034  0.00  0.00    -0.272 NA
ATOM      6  C5  <0> d           4.794   0.175  -0.042  0.00  0.00     0.003 A 
ATOM      7  C6  <0> d           3.671  -0.598  -0.036  0.00  0.00    -0.054 A 
ATOM      8  C7  <0> d           2.418   0.033  -0.021  0.00  0.00    -0.002 A 
ATOM      9  C8  <0> d           1.206  -0.696  -0.013  0.00  0.00     0.055 A 
ATOM     10  C9  <0> d           0.002  -0.004   0.002  0.00  0.00    -0.062 A 
ATOM     11  C10 <0> d           1.220  -2.128  -0.021  0.00  0.00     0.100 C 
ATOM     12  N2  <0> d           1.232  -3.264  -0.028  0.00  0.00    -0.191 NA
ATOM     13  H1  <0> d          -0.965   1.901   0.026  0.00  0.00     0.083 H 
ATOM     14  H2  <0> d           1.100   3.188   0.008  0.00  0.00     0.084 H 
ATOM     15  H3  <0> d           3.593   3.235  -0.015  0.00  0.00     0.116 H 
ATOM     16  H4  <0> d           5.761  -0.305  -0.053  0.00  0.00     0.114 H 
ATOM     17  H5  <0> d           3.744  -1.676  -0.043  0.00  0.00     0.087 H 
ATOM     18  H6  <0> d          -0.929  -0.551   0.008  0.00  0.00     0.085 H 
ENDROOT
TORSDOF 0
