REMARK  7 active torsions:
REMARK  status: ('A' for Active; 'I' for Inactive)
REMARK    1  A    between atoms: C1_1  and  C2_2 
REMARK    2  A    between atoms: C2_2  and  O2_4 
REMARK    3  A    between atoms: O2_4  and  C3_5 
REMARK    4  A    between atoms: C3_5  and  C4_6 
REMARK    5  A    between atoms: C4_6  and  C5_7 
REMARK    6  A    between atoms: C4_6  and  C6_8 
REMARK    7  A    between atoms: C4_6  and  C7_9 
ROOT
ATOM      1  C4  <0> d          -0.019   1.526   0.010  0.00  0.00    -0.029 C 
ENDROOT
BRANCH   1   2
ATOM      2  C3  <0> d           0.002  -0.004   0.002  0.00  0.00     0.035 C 
ATOM      3  H4  <0> d          -1.020  -0.381   0.010  0.00  0.00     0.076 H 
ATOM      4  H5  <0> d           0.512  -0.356  -0.895  0.00  0.00     0.076 H 
BRANCH   2   5
ATOM      5  O2  <0> d           0.704  -0.485   1.178  0.00  0.00    -0.321 OA
BRANCH   5   6
ATOM      6  C2  <0> d           0.812  -1.815   1.323  0.00  0.00     0.254 C 
ATOM      7  O1  <0> d           0.335  -2.553   0.493  0.00  0.00    -0.266 OA
BRANCH   6   8
ATOM      8  C1  <0> d           1.527  -2.388   2.519  0.00  0.00     0.004 C 
ATOM      9  H1  <0> d           0.815  -2.541   3.329  0.00  0.00     0.041 H 
ATOM     10  H2  <0> d           1.981  -3.342   2.248  0.00  0.00     0.041 H 
ATOM     11  H3  <0> d           2.304  -1.696   2.843  0.00  0.00     0.041 H 
ENDBRANCH   6   8
ENDBRANCH   5   6
ENDBRANCH   2   5
ENDBRANCH   1   2
BRANCH   1  12
ATOM     12  C5  <0> d           1.417   2.055  -0.000  0.00  0.00    -0.068 C 
ATOM     13  H6  <0> d           1.927   1.704  -0.897  0.00  0.00     0.028 H 
ATOM     14  H7  <0> d           1.402   3.145   0.006  0.00  0.00     0.028 H 
ATOM     15  H8  <0> d           1.944   1.694   0.883  0.00  0.00     0.028 H 
ENDBRANCH   1  12
BRANCH   1  16
ATOM     16  C6  <0> d          -0.759   2.033  -1.229  0.00  0.00    -0.068 C 
ATOM     17  H9  <0> d          -1.781   1.655  -1.221  0.00  0.00     0.028 H 
ATOM     18  H10 <0> d          -0.773   3.123  -1.223  0.00  0.00     0.028 H 
ATOM     19  H11 <0> d          -0.248   1.681  -2.126  0.00  0.00     0.028 H 
ENDBRANCH   1  16
BRANCH   1  20
ATOM     20  C7  <0> d          -0.735   2.019   1.269  0.00  0.00    -0.068 C 
ATOM     21  H12 <0> d          -0.208   1.658   2.152  0.00  0.00     0.028 H 
ATOM     22  H13 <0> d          -0.750   3.109   1.275  0.00  0.00     0.028 H 
ATOM     23  H14 <0> d          -1.757   1.642   1.277  0.00  0.00     0.028 H 
ENDBRANCH   1  20
TORSDOF 7
