REMARK  2 active torsions:
REMARK  status: ('A' for Active; 'I' for Inactive)
REMARK    1  A    between atoms: C2_2  and  C5_9 
REMARK    2  A    between atoms: C3_6  and  C4_7 
ROOT
ATOM      1  C1  <0> d          -1.129   2.270   0.019  0.00  0.00    -0.013 A 
ATOM      2  C2  <0> d          -0.018   1.466   0.010  0.00  0.00     0.129 A 
ATOM      3  N1  <0> d           1.069   2.298   0.004  0.00  0.00    -0.271 N 
ATOM      4  H1  <0> d           2.022   1.997  -0.006  0.00  0.00     0.189 HD
ATOM      5  N2  <0> d           0.681   3.523   0.014  0.00  0.00    -0.167 NA
ATOM      6  C3  <0> d          -0.637   3.590   0.027  0.00  0.00     0.155 A 
ATOM      7  H2  <0> d          -2.162   1.956   0.021  0.00  0.00     0.091 H 
ENDROOT
BRANCH   2   8
ATOM      8  C5  <0> d           0.002  -0.004   0.002  0.00  0.00     0.228 C 
ATOM      9  O2  <0> d          -1.042  -0.626   0.008  0.00  0.00    -0.643 OA
ATOM     10  O4  <0> d           1.179  -0.662  -0.012  0.00  0.00    -0.643 OA
ENDBRANCH   2   8
BRANCH   6  11
ATOM     11  C4  <0> d          -1.448   4.824   0.040  0.00  0.00     0.230 C 
ATOM     12  O1  <0> d          -2.661   4.754   0.050  0.00  0.00    -0.643 OA
ATOM     13  O3  <0> d          -0.843   6.028   0.040  0.00  0.00    -0.643 OA
ENDBRANCH   6  11
TORSDOF 2
