REMARK  2 active torsions:
REMARK  status: ('A' for Active; 'I' for Inactive)
REMARK    1  A    between atoms: C4_5  and  C6_7 
REMARK    2  A    between atoms: C6_7  and  O1_8 
ROOT
ATOM      1  C1  <0> d          -0.017   1.382   0.010  0.00  0.00    -0.080 A 
ATOM      2  C2  <0> d           1.194   2.059   0.002  0.00  0.00    -0.066 A 
ATOM      3  C3  <0> d           2.370   1.334  -0.013  0.00  0.00     0.003 A 
ATOM      4  N1  <0> d           2.350   0.015  -0.021  0.00  0.00    -0.263 NA
ATOM      5  C4  <0> d           1.218  -0.661  -0.014  0.00  0.00     0.057 A 
ATOM      6  C5  <0> d           0.002  -0.004   0.002  0.00  0.00    -0.057 A 
ATOM      7  H1  <0> d          -0.952   1.922   0.026  0.00  0.00     0.083 H 
ATOM      8  H2  <0> d           1.217   3.138   0.007  0.00  0.00     0.085 H 
ATOM      9  H3  <0> d           3.317   1.853  -0.020  0.00  0.00     0.114 H 
ATOM     10  H4  <0> d          -0.922  -0.564   0.008  0.00  0.00     0.086 H 
ENDROOT
BRANCH   5  11
ATOM     11  C6  <0> d           1.250  -2.168  -0.023  0.00  0.00     0.056 C 
ATOM     12  H5  <0> d           1.763  -2.514  -0.920  0.00  0.00     0.083 H 
ATOM     13  H6  <0> d           1.781  -2.525   0.860  0.00  0.00     0.083 H 
BRANCH  11  14
ATOM     14  O1  <0> d          -0.086  -2.673  -0.013  0.00  0.00    -0.395 OA
ATOM     15  H7  <0> d          -0.142  -3.638  -0.018  0.00  0.00     0.209 HD
ENDBRANCH  11  14
ENDBRANCH   5  11
TORSDOF 2
