REMARK  0 active torsions:
REMARK  status: ('A' for Active; 'I' for Inactive)
ROOT
ATOM      1  C1  <0> d          -0.017   1.388   0.010  0.00  0.00     0.057 C 
ATOM      2  N1  <0> d           1.189   1.903   0.001  0.00  0.00    -0.255 NA
ATOM      3  C2  <0> d           2.123   0.802  -0.044  0.00  0.00     0.147 C 
ATOM      4  H1  <0> d           2.282   0.519  -1.085  0.00  0.00     0.117 H 
ATOM      5  C3  <0> d           1.276  -0.317   0.649  0.00  0.00     0.128 C 
ATOM      6  H2  <0> d           1.220  -0.173   1.728  0.00  0.00     0.093 H 
ATOM      7  N2  <0> d           0.002  -0.004   0.002  0.00  0.00    -0.368 N 
ATOM      8  C4  <0> d           1.991  -1.585   0.307  0.00  0.00     0.249 C 
ATOM      9  N3  <0> d           3.354  -1.494   0.379  0.00  0.00    -0.320 N 
ATOM     10  C5  <0> d           3.953  -0.333   0.829  0.00  0.00     0.063 C 
ATOM     11  N4  <0> d           3.392   0.817   0.633  0.00  0.00    -0.255 NA
ATOM     12  O1  <0> d           1.413  -2.604  -0.007  0.00  0.00    -0.271 OA
ATOM     13  H3  <0> d          -0.922   1.977   0.026  0.00  0.00     0.142 H 
ATOM     14  H4  <0> d          -0.665  -0.616  -0.347  0.00  0.00     0.161 HD
ATOM     15  H5  <0> d           4.899  -0.388   1.347  0.00  0.00     0.143 H 
ATOM     16  H6  <0> d           3.903  -2.248   0.113  0.00  0.00     0.169 HD
ENDROOT
TORSDOF 0
