REMARK  4 active torsions:
REMARK  status: ('A' for Active; 'I' for Inactive)
REMARK    1  A    between atoms: C1_1  and  C2_2 
REMARK    2  A    between atoms: C2_2  and  C3_3 
REMARK    3  A    between atoms: C5_6  and  C7_11 
REMARK    4  A    between atoms: C7_11  and  O2_12 
ROOT
ATOM      1  C3  <0> d          -0.013   1.086   0.008  0.00  0.00     0.025 C 
ATOM      2  H1  <0> d           0.002  -0.004   0.002  0.00  0.00     0.054 H 
ATOM      3  C4  <0> d          -0.811   1.623  -1.203  0.00  0.00    -0.033 C 
ATOM      4  C5  <0> d          -1.512   2.859  -0.592  0.00  0.00     0.033 C 
ATOM      5  H2  <0> d          -0.917   3.755  -0.768  0.00  0.00     0.075 H 
ATOM      6  N1  <0> d          -1.606   2.586   0.847  0.00  0.00    -0.354 N 
ATOM      7  C6  <0> d          -0.771   1.598   1.213  0.00  0.00     0.222 C 
ATOM      8  O1  <0> d          -0.643   1.179   2.344  0.00  0.00    -0.273 OA
ATOM      9  H8  <0> d          -0.142   1.912  -2.013  0.00  0.00     0.037 H 
ATOM     10  H9  <0> d          -1.541   0.890  -1.545  0.00  0.00     0.037 H 
ATOM     11  H10 <0> d          -2.196   3.058   1.456  0.00  0.00     0.162 HD
ENDROOT
BRANCH   1  12
ATOM     12  C2  <0> d           1.414   1.639  -0.003  0.00  0.00    -0.057 C 
ATOM     13  H6  <0> d           1.896   1.382  -0.945  0.00  0.00     0.033 H 
ATOM     14  H7  <0> d           1.383   2.724   0.106  0.00  0.00     0.033 H 
BRANCH  12  15
ATOM     15  C1  <0> d           2.205   1.033   1.158  0.00  0.00    -0.076 C 
ATOM     16  H3  <0> d           3.221   1.427   1.151  0.00  0.00     0.027 H 
ATOM     17  H4  <0> d           1.722   1.291   2.101  0.00  0.00     0.027 H 
ATOM     18  H5  <0> d           2.235  -0.051   1.050  0.00  0.00     0.027 H 
ENDBRANCH  12  15
ENDBRANCH   1  12
BRANCH   4  19
ATOM     19  C7  <0> d          -2.910   3.026  -1.191  0.00  0.00     0.035 C 
ATOM     20  H11 <0> d          -2.832   3.114  -2.275  0.00  0.00     0.077 H 
ATOM     21  H12 <0> d          -3.519   2.159  -0.939  0.00  0.00     0.077 H 
BRANCH  19  22
ATOM     22  O2  <0> d          -3.518   4.206  -0.660  0.00  0.00    -0.399 OA
ATOM     23  H13 <0> d          -4.408   4.375  -0.997  0.00  0.00     0.209 HD
ENDBRANCH  19  22
ENDBRANCH   4  19
TORSDOF 4
