REMARK  5 active torsions:
REMARK  status: ('A' for Active; 'I' for Inactive)
REMARK    1  A    between atoms: C1_1  and  C2_2 
REMARK    2  A    between atoms: C2_2  and  C3_3 
REMARK    3  A    between atoms: C2_2  and  C4_4 
REMARK    4  A    between atoms: C4_4  and  N1_5 
REMARK    5  A    between atoms: N1_5  and  N2_6 
ROOT
ATOM      1  C4  <0> d          -0.654  -2.247  -0.004  0.00  0.00    -0.002 C 
ATOM      2  H8  <0> d          -0.066  -2.442  -0.900  0.00  0.00     0.058 H 
ATOM      3  H9  <0> d          -0.049  -2.452   0.879  0.00  0.00     0.058 H 
ENDROOT
BRANCH   1   4
ATOM      4  C2  <0> d          -1.889  -3.151   0.003  0.00  0.00    -0.048 C 
ATOM      5  H4  <0> d          -2.538  -2.886  -0.831  0.00  0.00     0.040 H 
BRANCH   4   6
ATOM      6  C1  <0> d          -1.452  -4.611  -0.135  0.00  0.00    -0.072 C 
ATOM      7  H1  <0> d          -0.802  -4.877   0.700  0.00  0.00     0.028 H 
ATOM      8  H2  <0> d          -2.331  -5.255  -0.130  0.00  0.00     0.028 H 
ATOM      9  H3  <0> d          -0.911  -4.742  -1.072  0.00  0.00     0.028 H 
ENDBRANCH   4   6
BRANCH   4  10
ATOM     10  C3  <0> d          -2.648  -2.968   1.319  0.00  0.00    -0.072 C 
ATOM     11  H5  <0> d          -2.959  -1.928   1.417  0.00  0.00     0.028 H 
ATOM     12  H6  <0> d          -3.527  -3.612   1.324  0.00  0.00     0.028 H 
ATOM     13  H7  <0> d          -1.998  -3.233   2.153  0.00  0.00     0.028 H 
ENDBRANCH   4  10
ENDBRANCH   1   4
BRANCH   1  14
ATOM     14  N1  <0> d          -1.078  -0.841   0.008  0.00  0.00    -0.231 NA
ATOM     15  H10 <0> d          -1.678  -0.650   0.796  0.00  0.00     0.147 HD
BRANCH  14  16
ATOM     16  N2  <0> d           0.002  -0.004   0.002  0.00  0.00    -0.261 N 
ATOM     17  C6  <0> d           1.309  -0.361  -0.012  0.00  0.00     0.103 A 
ATOM     18  N4  <0> d           2.012   0.739  -0.013  0.00  0.00    -0.143 NA
ATOM     19  H12 <0> d           1.698  -1.368  -0.021  0.00  0.00     0.148 H 
ATOM     20  N3  <0> d           1.224   1.756  -0.000  0.00  0.00    -0.143 NA
ATOM     21  C5  <0> d          -0.016   1.351   0.009  0.00  0.00     0.103 A 
ATOM     22  H11 <0> d          -0.895   1.979   0.017  0.00  0.00     0.148 H 
ENDBRANCH  14  16
ENDBRANCH   1  14
TORSDOF 5
