REMARK  2 active torsions:
REMARK  status: ('A' for Active; 'I' for Inactive)
REMARK    1  A    between atoms: C1_1  and  C2_2 
REMARK    2  A    between atoms: C6_6  and  N1_8 
ROOT
ATOM      1  C2  <0> d           0.002  -0.004   0.002  0.00  0.00    -0.060 A 
ATOM      2  C3  <0> d           0.006  -0.688  -1.200  0.00  0.00    -0.077 A 
ATOM      3  C4  <0> d           0.025  -2.071  -1.212  0.00  0.00    -0.080 A 
ATOM      4  C5  <0> d           0.040  -2.773  -0.022  0.00  0.00    -0.055 A 
ATOM      5  C6  <0> d           0.037  -2.089   1.186  0.00  0.00     0.058 A 
ATOM      6  C7  <0> d           0.023  -0.700   1.194  0.00  0.00    -0.050 A 
ATOM      7  H4  <0> d          -0.006  -0.142  -2.131  0.00  0.00     0.084 H 
ATOM      8  H5  <0> d           0.027  -2.602  -2.152  0.00  0.00     0.083 H 
ATOM      9  H6  <0> d           0.054  -3.853  -0.032  0.00  0.00     0.087 H 
ATOM     10  H7  <0> d           0.025  -0.165   2.133  0.00  0.00     0.087 H 
ENDROOT
BRANCH   5  11
ATOM     11  N1  <0> d           0.052  -2.798   2.395  0.00  0.00    -0.245 N 
ATOM     12  N2  <0> d          -0.047  -2.244   3.678  0.00  0.00    -0.180 NA
ATOM     13  C10 <0> d           0.002  -3.219   4.550  0.00  0.00     0.023 A 
ATOM     14  C9  <0> d           0.143  -4.423   3.852  0.00  0.00    -0.048 A 
ATOM     15  H10 <0> d          -0.053  -3.111   5.623  0.00  0.00     0.117 H 
ATOM     16  C8  <0> d           0.172  -4.138   2.530  0.00  0.00     0.006 A 
ATOM     17  H9  <0> d           0.217  -5.407   4.292  0.00  0.00     0.087 H 
ATOM     18  H8  <0> d           0.272  -4.853   1.726  0.00  0.00     0.114 H 
ENDBRANCH   5  11
BRANCH   1  19
ATOM     19  C1  <0> d          -0.018   1.503   0.010  0.00  0.00    -0.051 C 
ATOM     20  H1  <0> d           1.004   1.880   0.003  0.00  0.00     0.033 H 
ATOM     21  H2  <0> d          -0.545   1.864  -0.873  0.00  0.00     0.033 H 
ATOM     22  H3  <0> d          -0.529   1.854   0.907  0.00  0.00     0.033 H 
ENDBRANCH   1  19
TORSDOF 2
