REMARK  6 active torsions:
REMARK  status: ('A' for Active; 'I' for Inactive)
REMARK    1  A    between atoms: C1_1  and  C2_2 
REMARK    2  A    between atoms: C2_2  and  C3_3 
REMARK    3  A    between atoms: C3_3  and  C4_5 
REMARK    4  A    between atoms: C3_3  and  C5_6 
REMARK    5  A    between atoms: C5_6  and  C6_8 
REMARK    6  A    between atoms: C5_6  and  N1_12 
ROOT
ATOM      1  C3  <0> d           0.928  -0.483  -1.078  0.00  0.00    -0.020 C 
ATOM      2  H1  <0> d           1.993  -0.261  -1.017  0.00  0.00     0.043 H 
ENDROOT
BRANCH   1   3
ATOM      3  C2  <0> d           0.220   0.064   0.163  0.00  0.00    -0.063 C 
ATOM      4  H6  <0> d           0.575  -0.466   1.047  0.00  0.00     0.033 H 
ATOM      5  H7  <0> d          -0.856  -0.080   0.060  0.00  0.00     0.033 H 
BRANCH   3   6
ATOM      6  C1  <0> d           0.524   1.556   0.306  0.00  0.00    -0.076 C 
ATOM      7  H3  <0> d           1.599   1.700   0.409  0.00  0.00     0.027 H 
ATOM      8  H4  <0> d           0.169   2.086  -0.578  0.00  0.00     0.027 H 
ATOM      9  H5  <0> d           0.019   1.946   1.190  0.00  0.00     0.027 H 
ENDBRANCH   3   6
ENDBRANCH   1   3
BRANCH   1  10
ATOM     10  C4  <0> d           0.341   0.171  -2.331  0.00  0.00    -0.071 C 
ATOM     11  H8  <0> d           0.322   1.253  -2.200  0.00  0.00     0.028 H 
ATOM     12  H9  <0> d           0.958  -0.079  -3.194  0.00  0.00     0.028 H 
ATOM     13  H10 <0> d          -0.673  -0.194  -2.490  0.00  0.00     0.028 H 
ENDBRANCH   1  10
BRANCH   1  14
ATOM     14  C5  <0> d           0.728  -1.998  -1.153  0.00  0.00     0.225 C 
ATOM     15  H2  <0> d           1.062  -2.456  -0.222  0.00  0.00     0.102 H 
BRANCH  14  16
ATOM     16  C6  <0> d           1.541  -2.563  -2.319  0.00  0.00     0.418 C 
ATOM     17  F1  <0> d           2.876  -2.165  -2.193  0.00  0.00    -0.169 F 
ATOM     18  F2  <0> d           1.468  -3.960  -2.306  0.00  0.00    -0.169 F 
ATOM     19  F3  <0> d           1.024  -2.081  -3.526  0.00  0.00    -0.169 F 
ENDBRANCH  14  16
BRANCH  14  20
ATOM     20  N1  <0> d          -0.696  -2.294  -1.361  0.00  0.00     0.092 N 
ATOM     21  H11 <0> d          -1.248  -1.988  -0.574  0.00  0.00     0.313 HD
ATOM     22  H12 <0> d          -1.030  -1.881  -2.219  0.00  0.00     0.313 HD
ENDBRANCH  14  20
ENDBRANCH   1  14
TORSDOF 6
