REMARK  1 active torsions:
REMARK  status: ('A' for Active; 'I' for Inactive)
REMARK    1  A    between atoms: C1_1  and  C2_2 
ROOT
ATOM      1  C2  <0> d           0.002  -0.004   0.002  0.00  0.00    -0.021 A 
ATOM      2  C3  <0> d           0.006  -0.700  -1.195  0.00  0.00    -0.052 A 
ATOM      3  C4  <0> d           0.025  -2.087  -1.155  0.00  0.00     0.052 A 
ATOM      4  C5  <0> d           0.039  -2.731   0.072  0.00  0.00     0.025 A 
ATOM      5  N1  <0> d           0.035  -2.046   1.195  0.00  0.00    -0.248 NA
ATOM      6  C6  <0> d           0.023  -0.718   1.200  0.00  0.00     0.142 A 
ATOM      7  C7  <0> d           0.025  -0.012   2.446  0.00  0.00     0.120 C 
ATOM      8  N2  <0> d           0.027   0.547   3.435  0.00  0.00    -0.190 NA
ATOM      9 Cl1  <0> d           0.030  -3.006  -2.628  0.00  0.00    -0.083 Cl
ATOM     10  H4  <0> d          -0.006  -0.174  -2.139  0.00  0.00     0.087 H 
ATOM     11  H5  <0> d           0.054  -3.811   0.107  0.00  0.00     0.117 H 
ENDROOT
BRANCH   1  12
ATOM     12  C1  <0> d          -0.018   1.503   0.010  0.00  0.00    -0.048 C 
ATOM     13  H1  <0> d           1.004   1.880   0.003  0.00  0.00     0.033 H 
ATOM     14  H2  <0> d          -0.545   1.864  -0.873  0.00  0.00     0.033 H 
ATOM     15  H3  <0> d          -0.529   1.854   0.907  0.00  0.00     0.033 H 
ENDBRANCH   1  12
TORSDOF 1
