REMARK  0 active torsions:
REMARK  status: ('A' for Active; 'I' for Inactive)
ROOT
ATOM      1  C1  <0> d          -0.016   1.334   0.009  0.00  0.00     0.047 A 
ATOM      2  C2  <0> d           1.279   1.760  -0.001  0.00  0.00     0.173 A 
ATOM      3  O1  <0> d           2.054   0.651  -0.014  0.00  0.00    -0.292 OA
ATOM      4  C3  <0> d           1.242  -0.412  -0.012  0.00  0.00     0.104 A 
ATOM      5  N1  <0> d           0.002  -0.004   0.002  0.00  0.00    -0.245 NA
ATOM      6  C4  <0> d           1.731   3.119   0.002  0.00  0.00     0.127 C 
ATOM      7  N2  <0> d           2.090   4.197   0.003  0.00  0.00    -0.189 NA
ATOM      8  H1  <0> d          -0.895   1.961   0.025  0.00  0.00     0.120 H 
ATOM      9  H2  <0> d           1.562  -1.444  -0.021  0.00  0.00     0.155 H 
ENDROOT
TORSDOF 0
