REMARK  3 active torsions:
REMARK  status: ('A' for Active; 'I' for Inactive)
REMARK    1  A    between atoms: C1_1  and  C2_2 
REMARK    2  A    between atoms: C2_2  and  C10_10 
REMARK    3  A    between atoms: C6_6  and  C9_9 
ROOT
ATOM      1  C2  <0> d           1.386   1.798  -0.002  0.00  0.00    -0.037 C 
ATOM      2  C3  <0> d          -0.013   1.086   0.008  0.00  0.00    -0.047 C 
ATOM      3  C4  <0> d          -0.691   1.765  -1.221  0.00  0.00    -0.060 C 
ATOM      4  C5  <0> d          -0.136   3.208  -1.225  0.00  0.00    -0.057 C 
ATOM      5  C6  <0> d           0.825   3.264   0.001  0.00  0.00    -0.037 C 
ATOM      6  C7  <0> d          -0.120   3.209   1.240  0.00  0.00    -0.057 C 
ATOM      7  C8  <0> d          -0.667   1.752   1.257  0.00  0.00    -0.060 C 
ATOM      8  H4  <0> d           0.002  -0.004   0.002  0.00  0.00     0.041 H 
ATOM      9  H5  <0> d          -0.415   1.249  -2.140  0.00  0.00     0.033 H 
ATOM     10  H6  <0> d          -1.774   1.775  -1.100  0.00  0.00     0.033 H 
ATOM     11  H7  <0> d          -0.946   3.927  -1.107  0.00  0.00     0.034 H 
ATOM     12  H8  <0> d           0.412   3.403  -2.147  0.00  0.00     0.034 H 
ATOM     13  H9  <0> d           0.441   3.404   2.155  0.00  0.00     0.034 H 
ATOM     14  H10 <0> d          -0.931   3.930   1.132  0.00  0.00     0.034 H 
ATOM     15  H11 <0> d          -1.752   1.763   1.157  0.00  0.00     0.033 H 
ATOM     16  H12 <0> d          -0.374   1.226   2.165  0.00  0.00     0.033 H 
ENDROOT
BRANCH   1  17
ATOM     17  C1  <0> d           2.195   1.491   1.260  0.00  0.00    -0.068 C 
ATOM     18  H1  <0> d           2.384   0.419   1.319  0.00  0.00     0.028 H 
ATOM     19  H2  <0> d           3.144   2.026   1.222  0.00  0.00     0.028 H 
ATOM     20  H3  <0> d           1.633   1.810   2.138  0.00  0.00     0.028 H 
ENDBRANCH   1  17
BRANCH   1  21
ATOM     21  C10 <0> d           2.178   1.490  -1.273  0.00  0.00    -0.068 C 
ATOM     22  H16 <0> d           1.606   1.807  -2.144  0.00  0.00     0.028 H 
ATOM     23  H17 <0> d           3.128   2.024  -1.248  0.00  0.00     0.028 H 
ATOM     24  H18 <0> d           2.366   0.418  -1.333  0.00  0.00     0.028 H 
ENDBRANCH   1  21
BRANCH   5  25
ATOM     25  C9  <0> d           1.865   4.386  -0.015  0.00  0.00    -0.068 C 
ATOM     26  H13 <0> d           2.478   4.300  -0.913  0.00  0.00     0.028 H 
ATOM     27  H14 <0> d           1.359   5.351  -0.012  0.00  0.00     0.028 H 
ATOM     28  H15 <0> d           2.501   4.306   0.867  0.00  0.00     0.028 H 
ENDBRANCH   5  25
TORSDOF 3
