REMARK  2 active torsions:
REMARK  status: ('A' for Active; 'I' for Inactive)
REMARK    1  A    between atoms: C1_1  and  C2_2 
REMARK    2  A    between atoms: C5_6  and  C7_8 
ROOT
ATOM      1  C2  <0> d           2.376   1.368  -0.013  0.00  0.00    -0.058 A 
ATOM      2  C3  <0> d           1.163   2.039   0.002  0.00  0.00    -0.060 A 
ATOM      3  C4  <0> d          -0.016   1.311   0.009  0.00  0.00     0.004 A 
ATOM      4  N1  <0> d           0.002  -0.004   0.002  0.00  0.00    -0.254 NA
ATOM      5  C5  <0> d           1.141  -0.685  -0.013  0.00  0.00     0.133 A 
ATOM      6  C6  <0> d           2.365  -0.018  -0.021  0.00  0.00    -0.043 A 
ATOM      7  H4  <0> d           1.138   3.118   0.008  0.00  0.00     0.086 H 
ATOM      8  H5  <0> d          -0.962   1.831   0.017  0.00  0.00     0.114 H 
ATOM      9  H6  <0> d           3.291  -0.573  -0.033  0.00  0.00     0.088 H 
ENDROOT
BRANCH   1  10
ATOM     10  C1  <0> d           3.678   2.128  -0.022  0.00  0.00    -0.051 C 
ATOM     11  H1  <0> d           3.982   2.317  -1.051  0.00  0.00     0.033 H 
ATOM     12  H2  <0> d           3.547   3.077   0.499  0.00  0.00     0.033 H 
ATOM     13  H3  <0> d           4.445   1.540   0.482  0.00  0.00     0.033 H 
ENDBRANCH   1  10
BRANCH   5  14
ATOM     14  C7  <0> d           1.112  -2.165  -0.020  0.00  0.00     0.228 C 
ATOM     15  O1  <0> d           2.151  -2.793  -0.033  0.00  0.00    -0.643 OA
ATOM     16  O2  <0> d          -0.067  -2.816  -0.011  0.00  0.00    -0.643 OA
ENDBRANCH   5  14
TORSDOF 2
