REMARK  1 active torsions:
REMARK  status: ('A' for Active; 'I' for Inactive)
REMARK    1  A    between atoms: C3_3  and  C6_8 
ROOT
ATOM      1  C1  <0> d          -0.013   1.076   0.008  0.00  0.00    -0.037 A 
ATOM      2  C2  <0> d           1.100   1.925   0.002  0.00  0.00    -0.040 A 
ATOM      3  C3  <0> d           0.618   3.214   0.013  0.00  0.00     0.153 A 
ATOM      4  O1  <0> d          -0.728   3.165   0.025  0.00  0.00    -0.293 OA
ATOM      5  C4  <0> d          -1.130   1.881   0.017  0.00  0.00     0.156 A 
ATOM      6  C5  <0> d          -2.488   1.429   0.020  0.00  0.00     0.125 C 
ATOM      7  N1  <0> d          -3.566   1.069   0.022  0.00  0.00    -0.189 NA
ATOM      8  H1  <0> d           0.002  -0.004   0.002  0.00  0.00     0.089 H 
ATOM      9  H2  <0> d           2.138   1.625  -0.010  0.00  0.00     0.088 H 
ENDROOT
BRANCH   3  10
ATOM     10  C6  <0> d           1.432   4.436   0.012  0.00  0.00     0.234 C 
ATOM     11  O2  <0> d           2.646   4.358   0.001  0.00  0.00    -0.642 OA
ATOM     12  O3  <0> d           0.835   5.645   0.024  0.00  0.00    -0.642 OA
ENDBRANCH   3  10
TORSDOF 1
