REMARK  0 active torsions:
REMARK  status: ('A' for Active; 'I' for Inactive)
ROOT
ATOM      1  C1  <0> d          -0.019   1.520   0.010  0.00  0.00    -0.047 C 
ATOM      2  C2  <0> d           1.423   1.968  -0.001  0.00  0.00    -0.106 C 
ATOM      3  C3  <0> d           2.087   2.197  -1.096  0.00  0.00    -0.106 C 
ATOM      4  C4  <0> d           1.603   2.110  -2.484  0.00  0.00    -0.047 C 
ATOM      5  C5  <0> d           0.336   1.349  -2.770  0.00  0.00    -0.047 C 
ATOM      6  C6  <0> d           0.417  -0.123  -2.505  0.00  0.00    -0.106 C 
ATOM      7  C7  <0> d           0.230  -0.634  -1.312  0.00  0.00    -0.106 C 
ATOM      8  C8  <0> d           0.002  -0.004   0.002  0.00  0.00    -0.047 C 
ATOM      9  H1  <0> d          -0.457   1.843   0.973  0.00  0.00     0.039 H 
ATOM     10  H2  <0> d          -0.600   1.946  -0.773  0.00  0.00     0.039 H 
ATOM     11  H3  <0> d           1.926   2.103   0.954  0.00  0.00     0.076 H 
ATOM     12  H4  <0> d           3.138   2.494  -0.958  0.00  0.00     0.076 H 
ATOM     13  H5  <0> d           1.467   3.131  -2.864  0.00  0.00     0.039 H 
ATOM     14  H6  <0> d           2.400   1.663  -3.096  0.00  0.00     0.039 H 
ATOM     15  H7  <0> d          -0.525   1.794  -2.317  0.00  0.00     0.039 H 
ATOM     16  H8  <0> d           0.167   1.445  -3.865  0.00  0.00     0.039 H 
ATOM     17  H9  <0> d           0.640  -0.791  -3.335  0.00  0.00     0.076 H 
ATOM     18  H10 <0> d           0.247  -1.737  -1.298  0.00  0.00     0.076 H 
ATOM     19  H11 <0> d           0.784  -0.335   0.695  0.00  0.00     0.039 H 
ATOM     20  H12 <0> d          -0.955  -0.357   0.404  0.00  0.00     0.039 H 
ENDROOT
TORSDOF 0
