REMARK  5 active torsions:
REMARK  status: ('A' for Active; 'I' for Inactive)
REMARK    1  A    between atoms: C1_1  and  C2_2 
REMARK    2  A    between atoms: C2_2  and  C3_4 
REMARK    3  A    between atoms: C2_2  and  O2_12 
REMARK    4  A    between atoms: C6_7  and  O1_10 
REMARK    5  A    between atoms: O1_10  and  C9_11 
ROOT
ATOM      1  C3  <0> d          -1.220   1.750   0.017  0.00  0.00    -0.030 A 
ATOM      2  C4  <0> d          -0.013   1.076   0.008  0.00  0.00    -0.072 A 
ATOM      3  C5  <0> d           1.175   1.782   0.000  0.00  0.00    -0.050 A 
ATOM      4  C6  <0> d           1.155   3.169   0.008  0.00  0.00     0.068 A 
ATOM      5  C7  <0> d          -0.057   3.844   0.023  0.00  0.00    -0.050 A 
ATOM      6  C8  <0> d          -1.242   3.133   0.031  0.00  0.00    -0.072 A 
ATOM      7  H5  <0> d           0.002  -0.004   0.002  0.00  0.00     0.084 H 
ATOM      8  H6  <0> d           2.117   1.255  -0.012  0.00  0.00     0.087 H 
ATOM      9  H7  <0> d          -0.075   4.923   0.030  0.00  0.00     0.087 H 
ATOM     10  H8  <0> d          -2.186   3.657   0.042  0.00  0.00     0.084 H 
ENDROOT
BRANCH   1  11
ATOM     11  C2  <0> d          -2.513   0.977   0.019  0.00  0.00     0.057 C 
ATOM     12  H1  <0> d          -2.345  -0.011   0.447  0.00  0.00     0.089 H 
BRANCH  11  13
ATOM     13  C1  <0> d          -3.022   0.832  -1.417  0.00  0.00    -0.049 C 
ATOM     14  H2  <0> d          -2.281   0.299  -2.013  0.00  0.00     0.031 H 
ATOM     15  H3  <0> d          -3.958   0.273  -1.416  0.00  0.00     0.031 H 
ATOM     16  H4  <0> d          -3.190   1.820  -1.845  0.00  0.00     0.031 H 
ENDBRANCH  11  13
BRANCH  11  17
ATOM     17  O2  <0> d          -3.485   1.676   0.800  0.00  0.00    -0.391 OA
ATOM     18  H12 <0> d          -4.344   1.235   0.845  0.00  0.00     0.210 HD
ENDBRANCH  11  17
ENDBRANCH   1  11
BRANCH   4  19
ATOM     19  O1  <0> d           2.322   3.866   0.000  0.00  0.00    -0.356 OA
BRANCH  19  20
ATOM     20  C9  <0> d           2.225   5.292   0.009  0.00  0.00     0.010 C 
ATOM     21  H9  <0> d           3.226   5.724   0.001  0.00  0.00     0.066 H 
ATOM     22  H10 <0> d           1.679   5.625  -0.874  0.00  0.00     0.066 H 
ATOM     23  H11 <0> d           1.697   5.615   0.906  0.00  0.00     0.066 H 
ENDBRANCH  19  20
ENDBRANCH   4  19
TORSDOF 5
