REMARK  1 active torsions:
REMARK  status: ('A' for Active; 'I' for Inactive)
REMARK    1  A    between atoms: C1_1  and  C2_2 
ROOT
ATOM      1  C2  <0> d          -0.018   1.503   0.010  0.00  0.00    -0.043 A 
ATOM      2  C3  <0> d           1.166   2.218   0.003  0.00  0.00    -0.054 A 
ATOM      3  C4  <0> d           1.097   3.617   0.011  0.00  0.00     0.062 A 
ATOM      4  C5  <0> d          -0.158   4.229   0.025  0.00  0.00     0.022 A 
ATOM      5  N1  <0> d          -1.256   3.504   0.032  0.00  0.00    -0.271 NA
ATOM      6  C6  <0> d          -1.221   2.185   0.020  0.00  0.00     0.008 A 
ATOM      7  C7  <0> d           2.292   4.405   0.003  0.00  0.00     0.101 C 
ATOM      8  N2  <0> d           3.241   5.030  -0.003  0.00  0.00    -0.191 NA
ATOM      9  H4  <0> d           2.120   1.711  -0.008  0.00  0.00     0.086 H 
ATOM     10  H5  <0> d          -0.227   5.307   0.031  0.00  0.00     0.117 H 
ATOM     11  H6  <0> d          -2.147   1.629   0.021  0.00  0.00     0.115 H 
ENDROOT
BRANCH   1  12
ATOM     12  C1  <0> d           0.002  -0.004   0.002  0.00  0.00    -0.050 C 
ATOM     13  H1  <0> d           0.017  -0.373   1.028  0.00  0.00     0.033 H 
ATOM     14  H2  <0> d          -0.888  -0.377  -0.505  0.00  0.00     0.033 H 
ATOM     15  H3  <0> d           0.892  -0.352  -0.522  0.00  0.00     0.033 H 
ENDBRANCH   1  12
TORSDOF 1
