REMARK  3 active torsions:
REMARK  status: ('A' for Active; 'I' for Inactive)
REMARK    1  A    between atoms: C2_2  and  O4_12 
REMARK    2  A    between atoms: C3_4  and  O3_11 
REMARK    3  A    between atoms: C5_8  and  O2_10 
ROOT
ATOM      1  C1  <0> d          -2.851   1.593   0.118  0.00  0.00     0.007 C 
ATOM      2  C2  <0> d          -2.206   1.108  -1.183  0.00  0.00     0.066 C 
ATOM      3  H1  <0> d          -2.228   0.019  -1.218  0.00  0.00     0.087 H 
ATOM      4  C3  <0> d          -0.754   1.593  -1.232  0.00  0.00     0.081 C 
ATOM      5  H2  <0> d          -0.270   1.206  -2.129  0.00  0.00     0.090 H 
ATOM      6  C4  <0> d          -0.013   1.086   0.008  0.00  0.00     0.049 C 
ATOM      7  O1  <0> d          -0.682   1.547   1.183  0.00  0.00    -0.359 OA
ATOM      8  C5  <0> d          -2.029   1.086   1.306  0.00  0.00     0.131 C 
ATOM      9  H3  <0> d          -2.041  -0.004   1.317  0.00  0.00     0.128 H 
ATOM     10  H4  <0> d          -2.874   2.683   0.130  0.00  0.00     0.044 H 
ATOM     11  H5  <0> d          -3.868   1.206   0.187  0.00  0.00     0.044 H 
ATOM     12  H6  <0> d           0.002  -0.004   0.002  0.00  0.00     0.078 H 
ATOM     13  H7  <0> d           1.010   1.463   0.000  0.00  0.00     0.078 H 
ENDROOT
BRANCH   2  14
ATOM     14  O4  <0> d          -2.924   1.638  -2.299  0.00  0.00    -0.393 OA
ATOM     15  H10 <0> d          -3.853   1.371  -2.332  0.00  0.00     0.210 HD
ENDBRANCH   2  14
BRANCH   4  16
ATOM     16  O3  <0> d          -0.728   3.022  -1.252  0.00  0.00    -0.391 OA
ATOM     17  H9  <0> d           0.163   3.399  -1.278  0.00  0.00     0.210 HD
ENDBRANCH   4  16
BRANCH   8  18
ATOM     18  O2  <0> d          -2.594   1.581   2.522  0.00  0.00    -0.371 OA
ATOM     19  H8  <0> d          -2.122   1.298   3.318  0.00  0.00     0.212 HD
ENDBRANCH   8  18
TORSDOF 3
