REMARK  2 active torsions:
REMARK  status: ('A' for Active; 'I' for Inactive)
REMARK    1  A    between atoms: C3_3  and  C4_4 
REMARK    2  A    between atoms: C5_7  and  N3_9 
ROOT
ATOM      1  C1  <0> d          -1.332  -0.728  -0.193  0.00  0.00    -0.054 A 
ATOM      2  C2  <0> d          -0.656  -0.726   1.180  0.00  0.00    -0.054 A 
ATOM      3  C3  <0> d           0.002  -0.004   0.002  0.00  0.00     0.012 A 
ATOM      4  H1  <0> d          -2.224  -0.114  -0.315  0.00  0.00     0.034 H 
ATOM      5  H2  <0> d          -1.321  -1.659  -0.758  0.00  0.00     0.034 H 
ATOM      6  H3  <0> d          -0.200  -1.657   1.518  0.00  0.00     0.034 H 
ATOM      7  H4  <0> d          -1.103  -0.111   1.961  0.00  0.00     0.034 H 
ATOM      8  H5  <0> d           0.891  -0.460  -0.435  0.00  0.00     0.052 H 
ENDROOT
BRANCH   3   9
ATOM      9  C4  <0> d          -0.018   1.503   0.010  0.00  0.00     0.175 A 
ATOM     10  O1  <0> d           1.058   2.314   0.004  0.00  0.00    -0.260 OA
ATOM     11  C5  <0> d           0.583   3.573   0.016  0.00  0.00     0.265 A 
ATOM     12  N2  <0> d          -0.726   3.494   0.028  0.00  0.00    -0.103 NA
ATOM     13  N1  <0> d          -1.078   2.257   0.019  0.00  0.00    -0.125 NA
BRANCH  11  14
ATOM     14  N3  <0> d           1.334   4.733   0.015  0.00  0.00    -0.362 N 
ATOM     15  H6  <0> d           2.303   4.683   0.006  0.00  0.00     0.159 HD
ATOM     16  H7  <0> d           0.893   5.597   0.024  0.00  0.00     0.159 HD
ENDBRANCH  11  14
ENDBRANCH   3   9
TORSDOF 2
