REMARK  2 active torsions:
REMARK  status: ('A' for Active; 'I' for Inactive)
REMARK    1  A    between atoms: C4_5  and  C5_7 
REMARK    2  A    between atoms: C5_7  and  O2_8 
ROOT
ATOM      1  C1  <0> d           2.192   0.804   0.604  0.00  0.00    -0.038 C 
ATOM      2  C2  <0> d           1.326   1.937  -0.000  0.00  0.00     0.020 C 
ATOM      3  O1  <0> d          -0.017   1.428   0.010  0.00  0.00    -0.391 OA
ATOM      4  C3  <0> d           0.002  -0.004   0.002  0.00  0.00     0.025 C 
ATOM      5  C4  <0> d           1.480  -0.451   0.029  0.00  0.00    -0.011 C 
ATOM      6  H1  <0> d           1.835  -0.677  -0.976  0.00  0.00     0.046 H 
ATOM      7  H2  <0> d           2.151   0.815   1.693  0.00  0.00     0.036 H 
ATOM      8  H3  <0> d           3.222   0.866   0.252  0.00  0.00     0.036 H 
ATOM      9  H4  <0> d           1.642   2.151  -1.021  0.00  0.00     0.074 H 
ATOM     10  H5  <0> d           1.395   2.835   0.614  0.00  0.00     0.074 H 
ATOM     11  H6  <0> d          -0.516  -0.386   0.882  0.00  0.00     0.075 H 
ATOM     12  H7  <0> d          -0.480  -0.375  -0.902  0.00  0.00     0.075 H 
ENDROOT
BRANCH   5  13
ATOM     13  C5  <0> d           1.667  -1.655   0.954  0.00  0.00     0.022 C 
ATOM     14  H8  <0> d           2.730  -1.880   1.047  0.00  0.00     0.074 H 
ATOM     15  H9  <0> d           1.257  -1.425   1.938  0.00  0.00     0.074 H 
BRANCH  13  16
ATOM     16  O2  <0> d           0.987  -2.786   0.407  0.00  0.00    -0.400 OA
ATOM     17  H10 <0> d           1.063  -3.588   0.942  0.00  0.00     0.209 HD
ENDBRANCH  13  16
ENDBRANCH   5  13
TORSDOF 2
