REMARK  1 active torsions:
REMARK  status: ('A' for Active; 'I' for Inactive)
REMARK    1  A    between atoms: C4_4  and  O1_7 
ROOT
ATOM      1  C1  <0> d           1.171   3.059   0.007  0.00  0.00     0.018 A 
ATOM      2  C2  <0> d          -0.007   3.805   0.021  0.00  0.00     0.068 A 
ATOM      3  C3  <0> d          -1.232   3.127   0.029  0.00  0.00     0.018 A 
ATOM      4  C4  <0> d          -1.232   1.745   0.017  0.00  0.00     0.092 A 
ATOM      5  C5  <0> d          -0.013   1.076   0.008  0.00  0.00     0.034 A 
ATOM      6  N1  <0> d           1.126   1.742   0.001  0.00  0.00    -0.269 NA
ATOM      7  C6  <0> d          -2.304   4.183   0.044  0.00  0.00     0.057 A 
ATOM      8  O2  <0> d          -1.617   5.465   0.044  0.00  0.00    -0.313 OA
ATOM      9  C7  <0> d          -0.290   5.250   0.031  0.00  0.00     0.295 A 
ATOM     10  O3  <0> d           0.555   6.123   0.027  0.00  0.00    -0.259 OA
ATOM     11  H1  <0> d           2.126   3.563   0.001  0.00  0.00     0.116 H 
ATOM     12  H2  <0> d           0.002  -0.004   0.002  0.00  0.00     0.119 H 
ATOM     13  H4  <0> d          -2.937   4.075  -0.849  0.00  0.00     0.083 H 
ATOM     14  H5  <0> d          -2.921   4.066   0.947  0.00  0.00     0.083 H 
ENDROOT
BRANCH   4  15
ATOM     15  O1  <0> d          -2.401   1.053   0.020  0.00  0.00    -0.359 OA
ATOM     16  H3  <0> d          -2.390  -0.047   0.010  0.00  0.00     0.217 HD
ENDBRANCH   4  15
TORSDOF 1
