REMARK  1 active torsions:
REMARK  status: ('A' for Active; 'I' for Inactive)
REMARK    1  A    between atoms: C1_1  and  C2_2 
ROOT
ATOM      1  C2  <0> d          -0.018   1.503   0.010  0.00  0.00     0.098 A 
ATOM      2  C3  <0> d           1.195   2.228   0.003  0.00  0.00     0.269 A 
ATOM      3  O1  <0> d           2.265   1.642  -0.011  0.00  0.00    -0.266 OA
ATOM      4  N1  <0> d           1.153   3.578   0.010  0.00  0.00    -0.331 N 
ATOM      5  H1  <0> d           2.088   4.157   0.004  0.00  0.00     0.168 HD
ATOM      6  C4  <0> d          -0.054   4.202   0.024  0.00  0.00    -0.003 A 
ATOM      7  C5  <0> d          -1.197   3.473   0.031  0.00  0.00     0.017 A 
ATOM      8  N2  <0> d          -1.161   2.144   0.019  0.00  0.00    -0.259 NA
ATOM      9  H5  <0> d          -0.102   5.281   0.030  0.00  0.00     0.113 H 
ATOM     10  H6  <0> d          -2.151   3.980   0.042  0.00  0.00     0.116 H 
ENDROOT
BRANCH   1  11
ATOM     11  C1  <0> d           0.002  -0.004   0.002  0.00  0.00    -0.030 C 
ATOM     12  H2  <0> d           1.044  -0.357  -0.005  0.00  0.00     0.035 H 
ATOM     13  H3  <0> d          -0.516  -0.373  -0.896  0.00  0.00     0.035 H 
ATOM     14  H4  <0> d          -0.507  -0.383   0.900  0.00  0.00     0.035 H 
ENDBRANCH   1  11
TORSDOF 1
