REMARK  3 active torsions:
REMARK  status: ('A' for Active; 'I' for Inactive)
REMARK    1  A    between atoms: C1_1  and  O1_2 
REMARK    2  A    between atoms: O1_2  and  C2_3 
REMARK    3  A    between atoms: C6_8  and  C7_9 
ROOT
ATOM      1  C2  <0> d          -1.230   1.746   0.017  0.00  0.00     0.102 A 
ATOM      2  C3  <0> d          -0.013   1.076   0.008  0.00  0.00     0.035 A 
ATOM      3  N1  <0> d           1.123   1.742   0.001  0.00  0.00    -0.270 NA
ATOM      4  C4  <0> d           1.164   3.060   0.007  0.00  0.00     0.003 A 
ATOM      5  C5  <0> d           0.005   3.808   0.022  0.00  0.00    -0.047 A 
ATOM      6  C6  <0> d          -1.230   3.150   0.030  0.00  0.00     0.076 A 
ATOM      7  H4  <0> d           0.002  -0.004   0.002  0.00  0.00     0.119 H 
ATOM      8  H5  <0> d           2.120   3.562   0.001  0.00  0.00     0.114 H 
ATOM      9  H6  <0> d           0.050   4.888   0.027  0.00  0.00     0.087 H 
ENDROOT
BRANCH   1  10
ATOM     10  O1  <0> d          -2.398   1.055   0.020  0.00  0.00    -0.353 OA
BRANCH  10  11
ATOM     11  C1  <0> d          -2.308  -0.371   0.012  0.00  0.00     0.010 C 
ATOM     12  H1  <0> d          -1.777  -0.697  -0.882  0.00  0.00     0.066 H 
ATOM     13  H2  <0> d          -1.768  -0.706   0.897  0.00  0.00     0.066 H 
ATOM     14  H3  <0> d          -3.311  -0.798   0.015  0.00  0.00     0.066 H 
ENDBRANCH  10  11
ENDBRANCH   1  10
BRANCH   6  15
ATOM     15  C7  <0> d          -2.497   3.909   0.045  0.00  0.00     0.212 C 
ATOM     16  O2  <0> d          -3.559   3.320   0.052  0.00  0.00    -0.644 OA
ATOM     17  O3  <0> d          -2.474   5.256   0.052  0.00  0.00    -0.644 OA
ENDBRANCH   6  15
TORSDOF 3
