REMARK  5 active torsions:
REMARK  status: ('A' for Active; 'I' for Inactive)
REMARK    1  A    between atoms: C1_1  and  C2_2 
REMARK    2  A    between atoms: C2_2  and  N1_3 
REMARK    3  A    between atoms: N1_3  and  C3_4 
REMARK       I    between atoms: N1_3  and  C5_6 
REMARK    4  A    between atoms: C3_4  and  C4_5 
REMARK    5  A    between atoms: C5_6  and  C6_8 
ROOT
ATOM      1  C6  <0> d          -1.330   1.944   0.019  0.00  0.00     0.088 C 
ATOM      2  C7  <0> d          -2.435   0.973   0.019  0.00  0.00     0.068 C 
ATOM      3  N2  <0> d          -3.289   0.223   0.019  0.00  0.00    -0.197 NA
ATOM      4  H11 <0> d          -1.392   2.565   0.913  0.00  0.00     0.069 H 
ATOM      5  H12 <0> d          -1.400   2.575  -0.867  0.00  0.00     0.069 H 
ENDROOT
BRANCH   1   6
ATOM      6  C5  <0> d          -0.014   1.209   0.009  0.00  0.00     0.232 C 
ATOM      7  N1  <0> d           1.143   1.898   0.001  0.00  0.00    -0.352 N 
ATOM      8  O1  <0> d           0.002  -0.004   0.002  0.00  0.00    -0.272 OA
BRANCH   7   9
ATOM      9  C2  <0> d           1.124   3.363   0.009  0.00  0.00    -0.006 C 
ATOM     10  H4  <0> d           2.004   3.741  -0.511  0.00  0.00     0.063 H 
ATOM     11  H5  <0> d           0.224   3.717  -0.494  0.00  0.00     0.063 H 
BRANCH   9  12
ATOM     12  C1  <0> d           1.131   3.865   1.455  0.00  0.00    -0.061 C 
ATOM     13  H1  <0> d           1.116   4.955   1.461  0.00  0.00     0.029 H 
ATOM     14  H2  <0> d           0.251   3.487   1.975  0.00  0.00     0.029 H 
ATOM     15  H3  <0> d           2.030   3.511   1.958  0.00  0.00     0.029 H 
ENDBRANCH   9  12
ENDBRANCH   7   9
BRANCH   7  16
ATOM     16  C3  <0> d           2.422   1.183  -0.015  0.00  0.00    -0.006 C 
ATOM     17  H6  <0> d           3.179   1.780   0.495  0.00  0.00     0.063 H 
ATOM     18  H7  <0> d           2.309   0.226   0.495  0.00  0.00     0.063 H 
BRANCH  16  19
ATOM     19  C4  <0> d           2.853   0.942  -1.463  0.00  0.00    -0.061 C 
ATOM     20  H8  <0> d           2.097   0.345  -1.973  0.00  0.00     0.029 H 
ATOM     21  H9  <0> d           2.966   1.899  -1.972  0.00  0.00     0.029 H 
ATOM     22  H10 <0> d           3.804   0.410  -1.475  0.00  0.00     0.029 H 
ENDBRANCH  16  19
ENDBRANCH   7  16
ENDBRANCH   1   6
TORSDOF 5
