REMARK  2 active torsions:
REMARK  status: ('A' for Active; 'I' for Inactive)
REMARK    1  A    between atoms: C6_6  and  O1_7 
REMARK    2  A    between atoms: C7_8  and  O2_12 
ROOT
ATOM      1  C1  <0> d           3.914   2.805  -2.973  0.00  0.00    -0.049 A 
ATOM      2  C2  <0> d           4.153   2.902  -1.632  0.00  0.00    -0.052 A 
ATOM      3  C3  <0> d           3.202   2.454  -0.719  0.00  0.00     0.065 A 
ATOM      4  C4  <0> d           1.995   1.901  -1.188  0.00  0.00     0.049 A 
ATOM      5  C5  <0> d           1.764   1.806  -2.564  0.00  0.00    -0.035 A 
ATOM      6  C6  <0> d           2.723   2.259  -3.446  0.00  0.00     0.066 A 
ATOM      7  C7  <0> d           1.223   1.533  -0.001  0.00  0.00     0.194 A 
ATOM      8  N1  <0> d           1.930   1.855   1.048  0.00  0.00    -0.148 NA
ATOM      9  N2  <0> d           3.148   2.416   0.652  0.00  0.00    -0.275 N 
ATOM     10  H1  <0> d           3.866   2.739   1.269  0.00  0.00     0.189 HD
ATOM     11  H2  <0> d           4.656   3.155  -3.674  0.00  0.00     0.087 H 
ATOM     12  H3  <0> d           5.081   3.328  -1.279  0.00  0.00     0.087 H 
ATOM     13  H4  <0> d           0.841   1.383  -2.933  0.00  0.00     0.089 H 
ENDROOT
BRANCH   6  14
ATOM     14  O1  <0> d           2.504   2.171  -4.786  0.00  0.00    -0.361 OA
ATOM     15  H5  <0> d           2.812   1.344  -5.181  0.00  0.00     0.217 HD
ENDBRANCH   6  14
BRANCH   7  16
ATOM     16  O2  <0> d          -0.011   0.963   0.007  0.00  0.00    -0.343 OA
ATOM     17  H6  <0> d          -0.305   0.818   0.952  0.00  0.00     0.219 HD
ENDBRANCH   7  16
TORSDOF 2
