REMARK  2 active torsions:
REMARK  status: ('A' for Active; 'I' for Inactive)
REMARK    1  A    between atoms: C1_1  and  C2_2 
REMARK    2  A    between atoms: N1_5  and  C5_11 
ROOT
ATOM      1  C2  <0> d           2.412   1.300  -0.014  0.00  0.00     0.119 A 
ATOM      2  C3  <0> d           1.143   2.033   0.002  0.00  0.00     0.277 A 
ATOM      3  O1  <0> d           1.134   3.250   0.008  0.00  0.00    -0.266 OA
ATOM      4  N1  <0> d          -0.016   1.342   0.009  0.00  0.00    -0.268 N 
ATOM      5  C4  <0> d           0.002  -0.004   0.002  0.00  0.00     0.345 A 
ATOM      6  O2  <0> d          -1.048  -0.617   0.009  0.00  0.00    -0.245 OA
ATOM      7  N2  <0> d           1.164  -0.681  -0.013  0.00  0.00    -0.228 N 
ATOM      8  H1  <0> d           1.153  -1.651  -0.018  0.00  0.00     0.194 HD
ATOM      9  N3  <0> d           2.390  -0.004  -0.021  0.00  0.00    -0.170 NA
ENDROOT
BRANCH   1  10
ATOM     10  C1  <0> d           3.723   2.042  -0.023  0.00  0.00    -0.029 C 
ATOM     11  H2  <0> d           4.545   1.327  -0.035  0.00  0.00     0.036 H 
ATOM     12  H3  <0> d           3.777   2.673  -0.910  0.00  0.00     0.036 H 
ATOM     13  H4  <0> d           3.795   2.663   0.870  0.00  0.00     0.036 H 
ENDBRANCH   1  10
BRANCH   4  14
ATOM     14  C5  <0> d          -1.295   2.057   0.019  0.00  0.00    -0.006 C 
ATOM     15  H5  <0> d          -2.114   1.337   0.019  0.00  0.00     0.057 H 
ATOM     16  H6  <0> d          -1.357   2.678   0.913  0.00  0.00     0.057 H 
ATOM     17  H7  <0> d          -1.365   2.688  -0.867  0.00  0.00     0.057 H 
ENDBRANCH   4  14
TORSDOF 2
