REMARK  2 active torsions:
REMARK  status: ('A' for Active; 'I' for Inactive)
REMARK    1  A    between atoms: C5_6  and  C6_7 
REMARK    2  A    between atoms: C6_7  and  C7_8 
ROOT
ATOM      1  C1  <0> d          -0.019   1.528   0.010  0.00  0.00    -0.026 C 
ATOM      2  C2  <0> d           1.420   2.050  -0.001  0.00  0.00     0.021 C 
ATOM      3  O1  <0> d           2.102   1.539  -1.148  0.00  0.00    -0.391 OA
ATOM      4  C3  <0> d           2.194   0.114  -1.186  0.00  0.00     0.021 C 
ATOM      5  C4  <0> d           0.786  -0.486  -1.222  0.00  0.00    -0.026 C 
ATOM      6  C5  <0> d           0.002  -0.004   0.002  0.00  0.00     0.055 C 
ATOM      7  C8  <0> d           0.653  -0.494   1.228  0.00  0.00     0.069 C 
ATOM      8  N1  <0> d           1.155  -0.873   2.174  0.00  0.00    -0.196 NA
ATOM      9  H1  <0> d          -0.527   1.880   0.908  0.00  0.00     0.038 H 
ATOM     10  H2  <0> d          -0.544   1.890  -0.873  0.00  0.00     0.038 H 
ATOM     11  H3  <0> d           1.411   3.139  -0.038  0.00  0.00     0.074 H 
ATOM     12  H4  <0> d           1.933   1.721   0.903  0.00  0.00     0.074 H 
ATOM     13  H5  <0> d           2.743  -0.192  -2.077  0.00  0.00     0.074 H 
ATOM     14  H6  <0> d           2.717  -0.241  -0.297  0.00  0.00     0.074 H 
ATOM     15  H7  <0> d           0.277  -0.165  -2.131  0.00  0.00     0.038 H 
ATOM     16  H8  <0> d           0.853  -1.574  -1.206  0.00  0.00     0.038 H 
ENDROOT
BRANCH   6  17
ATOM     17  C6  <0> d          -1.431  -0.535  -0.066  0.00  0.00    -0.022 C 
ATOM     18  H9  <0> d          -1.990  -0.185   0.801  0.00  0.00     0.039 H 
ATOM     19  H10 <0> d          -1.909  -0.174  -0.977  0.00  0.00     0.039 H 
BRANCH  17  20
ATOM     20  C7  <0> d          -1.409  -2.065  -0.075  0.00  0.00     0.060 C 
ATOM     21  F1  <0> d          -2.719  -2.550  -0.137  0.00  0.00    -0.255 F 
ATOM     22  H11 <0> d          -0.850  -2.415  -0.942  0.00  0.00     0.082 H 
ATOM     23  H12 <0> d          -0.930  -2.426   0.836  0.00  0.00     0.082 H 
ENDBRANCH  17  20
ENDBRANCH   6  17
TORSDOF 2
