REMARK  2 active torsions:
REMARK  status: ('A' for Active; 'I' for Inactive)
REMARK    1  A    between atoms: C1_1  and  C2_2 
REMARK    2  A    between atoms: C5_6  and  C6_8 
ROOT
ATOM      1  C2  <0> d          -0.017   1.379   0.010  0.00  0.00     0.048 A 
ATOM      2  C3  <0> d           0.002  -0.004   0.002  0.00  0.00     0.027 A 
ATOM      3  N1  <0> d           1.155  -0.649  -0.012  0.00  0.00    -0.245 NA
ATOM      4  C4  <0> d           2.291   0.027  -0.019  0.00  0.00     0.149 A 
ATOM      5  C5  <0> d           2.272   1.412  -0.012  0.00  0.00     0.071 A 
ATOM      6  N2  <0> d           1.118   2.056   0.002  0.00  0.00    -0.254 NA
ATOM      7 Cl1  <0> d           3.807  -0.820  -0.038  0.00  0.00    -0.060 Cl
ATOM      8  H4  <0> d          -0.926  -0.557   0.008  0.00  0.00     0.117 H 
ENDROOT
BRANCH   1   9
ATOM      9  C1  <0> d          -1.332   2.115   0.020  0.00  0.00    -0.034 C 
ATOM     10  H1  <0> d          -1.644   2.286   1.050  0.00  0.00     0.035 H 
ATOM     11  H2  <0> d          -1.217   3.071  -0.489  0.00  0.00     0.035 H 
ATOM     12  H3  <0> d          -2.086   1.518  -0.494  0.00  0.00     0.035 H 
ENDBRANCH   1   9
BRANCH   5  13
ATOM     13  C6  <0> d           3.566   2.184  -0.021  0.00  0.00    -0.032 C 
ATOM     14  H5  <0> d           3.868   2.376  -1.050  0.00  0.00     0.035 H 
ATOM     15  H6  <0> d           3.427   3.132   0.499  0.00  0.00     0.035 H 
ATOM     16  H7  <0> d           4.339   1.604   0.483  0.00  0.00     0.035 H 
ENDBRANCH   5  13
TORSDOF 2
