REMARK  1 active torsions:
REMARK  status: ('A' for Active; 'I' for Inactive)
REMARK    1  A    between atoms: C5_5  and  C8_8 
ROOT
ATOM      1  C1  <0> d           1.598  -0.131  -1.907  0.00  0.00    -0.065 C 
ATOM      2  C2  <0> d           0.231  -0.548  -1.328  0.00  0.00    -0.065 C 
ATOM      3  C3  <0> d           0.002  -0.004   0.002  0.00  0.00    -0.064 C 
ATOM      4  C4  <0> d          -0.019   1.538   0.011  0.00  0.00    -0.052 C 
ATOM      5  C5  <0> d           1.401   2.035  -0.000  0.00  0.00     0.030 C 
ATOM      6  C6  <0> d           1.910   2.335  -1.423  0.00  0.00    -0.052 C 
ATOM      7  C7  <0> d           1.480   1.268  -2.449  0.00  0.00    -0.064 C 
ATOM      8  H1  <0> d           2.352  -0.157  -1.121  0.00  0.00     0.033 H 
ATOM      9  H2  <0> d           1.879  -0.812  -2.711  0.00  0.00     0.033 H 
ATOM     10  H3  <0> d           0.187  -1.636  -1.277  0.00  0.00     0.033 H 
ATOM     11  H4  <0> d          -0.556  -0.195  -1.994  0.00  0.00     0.033 H 
ATOM     12  H5  <0> d           0.794  -0.350   0.666  0.00  0.00     0.033 H 
ATOM     13  H6  <0> d          -0.955  -0.372   0.373  0.00  0.00     0.033 H 
ATOM     14  H7  <0> d          -0.541   1.902  -0.874  0.00  0.00     0.034 H 
ATOM     15  H8  <0> d          -0.524   1.893   0.909  0.00  0.00     0.034 H 
ATOM     16  H9  <0> d           2.043   1.279   0.452  0.00  0.00     0.056 H 
ATOM     17  H10 <0> d           2.999   2.386  -1.404  0.00  0.00     0.034 H 
ATOM     18  H11 <0> d           1.519   3.303  -1.738  0.00  0.00     0.034 H 
ATOM     19  H12 <0> d           2.109   1.358  -3.335  0.00  0.00     0.033 H 
ATOM     20  H13 <0> d           0.444   1.450  -2.733  0.00  0.00     0.033 H 
ENDROOT
BRANCH   5  21
ATOM     21  C8  <0> d           1.483   3.296   0.822  0.00  0.00     0.177 C 
ATOM     22  O1  <0> d           0.491   3.734   1.355  0.00  0.00    -0.648 OA
ATOM     23  O2  <0> d           2.657   3.930   0.963  0.00  0.00    -0.648 OA
ENDBRANCH   5  21
TORSDOF 1
