REMARK  3 active torsions:
REMARK  status: ('A' for Active; 'I' for Inactive)
REMARK    1  A    between atoms: C1_1  and  O1_2 
REMARK    2  A    between atoms: O1_2  and  C2_3 
REMARK    3  A    between atoms: C2_3  and  C3_5 
ROOT
ATOM      1  C3  <0> d          -0.013   1.086   0.008  0.00  0.00     0.030 C 
ATOM      2  C4  <0> d          -0.729   1.579   1.267  0.00  0.00    -0.053 C 
ATOM      3  C5  <0> d          -2.164   1.050   1.278  0.00  0.00    -0.064 C 
ATOM      4  C6  <0> d          -2.904   1.556   0.038  0.00  0.00    -0.065 C 
ATOM      5  C7  <0> d          -2.188   1.063  -1.221  0.00  0.00    -0.064 C 
ATOM      6  C8  <0> d          -0.753   1.593  -1.232  0.00  0.00    -0.053 C 
ATOM      7  H4  <0> d           0.018  -0.014   0.002  0.00  0.00     0.055 H 
ATOM      8  H5  <0> d          -0.197   1.215   2.158  0.00  0.00     0.034 H 
ATOM      9  H6  <0> d          -0.744   2.679   1.273  0.00  0.00     0.034 H 
ATOM     10  H7  <0> d          -2.149  -0.050   1.272  0.00  0.00     0.033 H 
ATOM     11  H8  <0> d          -2.679   1.405   2.183  0.00  0.00     0.033 H 
ATOM     12  H9  <0> d          -3.936   1.176   0.046  0.00  0.00     0.033 H 
ATOM     13  H10 <0> d          -2.919   2.656   0.044  0.00  0.00     0.033 H 
ATOM     14  H11 <0> d          -2.173  -0.037  -1.227  0.00  0.00     0.033 H 
ATOM     15  H12 <0> d          -2.720   1.427  -2.112  0.00  0.00     0.033 H 
ATOM     16  H13 <0> d          -0.768   2.693  -1.225  0.00  0.00     0.034 H 
ATOM     17  H14 <0> d          -0.238   1.238  -2.137  0.00  0.00     0.034 H 
ENDROOT
BRANCH   1  18
ATOM     18  C2  <0> d           1.401   1.607  -0.003  0.00  0.00     0.262 C 
ATOM     19  O2  <0> d           1.778   2.312  -0.909  0.00  0.00    -0.265 OA
BRANCH  18  20
ATOM     20  O1  <0> d           2.241   1.289   0.994  0.00  0.00    -0.326 OA
BRANCH  20  21
ATOM     21  C1  <0> d           3.588   1.827   0.919  0.00  0.00     0.013 C 
ATOM     22  H1  <0> d           4.167   1.491   1.792  0.00  0.00     0.067 H 
ATOM     23  H2  <0> d           3.544   2.926   0.909  0.00  0.00     0.067 H 
ATOM     24  H3  <0> d           4.074   1.471  -0.002  0.00  0.00     0.067 H 
ENDBRANCH  20  21
ENDBRANCH  18  20
ENDBRANCH   1  18
TORSDOF 3
