REMARK  5 active torsions:
REMARK  status: ('A' for Active; 'I' for Inactive)
REMARK    1  A    between atoms: C1_1  and  C2_2 
REMARK    2  A    between atoms: C2_2  and  C3_3 
REMARK    3  A    between atoms: C3_3  and  C4_4 
REMARK    4  A    between atoms: C4_4  and  C5_5 
REMARK    5  A    between atoms: N2_9  and  C8_10 
ROOT
ATOM      1  C4  <0> d          -0.729   1.579   1.267  0.00  0.00    -0.010 C 
ATOM      2  H8  <0> d          -0.744   2.669   1.273  0.00  0.00     0.044 H 
ATOM      3  H9  <0> d          -1.751   1.202   1.275  0.00  0.00     0.044 H 
ENDROOT
BRANCH   1   4
ATOM      4  C3  <0> d          -0.013   1.086   0.008  0.00  0.00    -0.059 C 
ATOM      5  H6  <0> d           0.002  -0.004   0.002  0.00  0.00     0.033 H 
ATOM      6  H7  <0> d           1.010   1.463   0.000  0.00  0.00     0.033 H 
BRANCH   4   7
ATOM      7  C2  <0> d          -0.753   1.593  -1.232  0.00  0.00    -0.068 C 
ATOM      8  H4  <0> d          -1.775   1.215  -1.224  0.00  0.00     0.032 H 
ATOM      9  H5  <0> d          -0.767   2.683  -1.226  0.00  0.00     0.032 H 
BRANCH   7  10
ATOM     10  C1  <0> d          -0.037   1.099  -2.490  0.00  0.00    -0.077 C 
ATOM     11  H1  <0> d          -0.564   1.460  -3.373  0.00  0.00     0.027 H 
ATOM     12  H2  <0> d           0.986   1.476  -2.498  0.00  0.00     0.027 H 
ATOM     13  H3  <0> d          -0.022   0.009  -2.496  0.00  0.00     0.027 H 
ENDBRANCH   7  10
ENDBRANCH   4   7
ENDBRANCH   1   4
BRANCH   1  14
ATOM     14  C5  <0> d           0.000   1.080   2.488  0.00  0.00     0.105 A 
ATOM     15  N2  <0> d           1.002   1.724   3.124  0.00  0.00    -0.348 N 
ATOM     16  C7  <0> d           1.384   0.937   4.177  0.00  0.00    -0.003 A 
ATOM     17  C6  <0> d           0.603  -0.160   4.148  0.00  0.00     0.019 A 
ATOM     18  H11 <0> d           2.162   1.154   4.894  0.00  0.00     0.113 H 
ATOM     19  N1  <0> d          -0.236  -0.043   3.108  0.00  0.00    -0.246 NA
ATOM     20  H10 <0> d           0.643  -0.986   4.842  0.00  0.00     0.117 H 
BRANCH  15  21
ATOM     21  C8  <0> d           1.573   3.022   2.757  0.00  0.00    -0.013 C 
ATOM     22  H12 <0> d           1.029   3.816   3.268  0.00  0.00     0.057 H 
ATOM     23  H13 <0> d           2.622   3.054   3.050  0.00  0.00     0.057 H 
ATOM     24  H14 <0> d           1.493   3.162   1.679  0.00  0.00     0.057 H 
ENDBRANCH  15  21
ENDBRANCH   1  14
TORSDOF 5
