REMARK  1 active torsions:
REMARK  status: ('A' for Active; 'I' for Inactive)
REMARK    1  A    between atoms: C3_3  and  C8_8 
REMARK       I    between atoms: C8_8  and  N1_10 
ROOT
ATOM      1  C1  <0> d          -3.793  -1.085  -0.735  0.00  0.00    -0.060 C 
ATOM      2  C2  <0> d          -2.726  -0.073  -1.212  0.00  0.00    -0.049 C 
ATOM      3  C3  <0> d          -2.482   0.853   0.018  0.00  0.00     0.041 C 
ATOM      4  C4  <0> d          -3.783   1.705   0.129  0.00  0.00    -0.049 C 
ATOM      5  C5  <0> d          -4.859   0.679   0.619  0.00  0.00    -0.060 C 
ATOM      6  C6  <0> d          -4.094  -0.674   0.739  0.00  0.00    -0.053 C 
ATOM      7  C7  <0> d          -2.679  -0.169   1.194  0.00  0.00    -0.046 C 
ATOM      8  H1  <0> d          -4.694  -1.002  -1.344  0.00  0.00     0.033 H 
ATOM      9  H2  <0> d          -3.399  -2.100  -0.776  0.00  0.00     0.033 H 
ATOM     10  H3  <0> d          -3.102   0.506  -2.055  0.00  0.00     0.034 H 
ATOM     11  H4  <0> d          -1.806  -0.590  -1.487  0.00  0.00     0.034 H 
ATOM     12  H5  <0> d          -3.650   2.509   0.853  0.00  0.00     0.034 H 
ATOM     13  H6  <0> d          -4.055   2.111  -0.845  0.00  0.00     0.034 H 
ATOM     14  H7  <0> d          -5.661   0.599  -0.115  0.00  0.00     0.033 H 
ATOM     15  H8  <0> d          -5.258   0.977   1.589  0.00  0.00     0.033 H 
ATOM     16  H9  <0> d          -4.567  -1.436   1.358  0.00  0.00     0.040 H 
ATOM     17  H10 <0> d          -1.943  -0.972   1.165  0.00  0.00     0.035 H 
ATOM     18  H11 <0> d          -2.701   0.325   2.165  0.00  0.00     0.035 H 
ENDROOT
BRANCH   3  19
ATOM     19  C8  <0> d          -1.187   1.624   0.017  0.00  0.00     0.224 C 
ATOM     20  O1  <0> d          -1.204   2.837   0.023  0.00  0.00    -0.273 OA
ATOM     21  N1  <0> d          -0.011   0.966   0.007  0.00  0.00    -0.369 N 
ATOM     22  H12 <0> d           0.002  -0.004   0.002  0.00  0.00     0.159 HD
ATOM     23  H13 <0> d           0.822   1.462   0.002  0.00  0.00     0.159 HD
ENDBRANCH   3  19
TORSDOF 1
