REMARK  7 active torsions:
REMARK  status: ('A' for Active; 'I' for Inactive)
REMARK    1  A    between atoms: C1_1  and  C2_2 
REMARK    2  A    between atoms: C2_2  and  C3_3 
REMARK    3  A    between atoms: C3_3  and  C4_5 
REMARK    4  A    between atoms: C3_3  and  O1_11 
REMARK    5  A    between atoms: C4_5  and  C5_6 
REMARK    6  A    between atoms: C6_7  and  C7_8 
REMARK    7  A    between atoms: C7_8  and  C9_10 
ROOT
ATOM      1  C4  <0> d          -0.013   1.086   0.008  0.00  0.00     0.015 C 
ATOM      2  H7  <0> d           0.002  -0.004   0.002  0.00  0.00     0.055 H 
ATOM      3  H8  <0> d           1.010   1.463   0.000  0.00  0.00     0.055 H 
ENDROOT
BRANCH   1   4
ATOM      4  C3  <0> d          -0.729   1.579   1.267  0.00  0.00     0.045 C 
ATOM      5  H1  <0> d          -0.822   2.665   1.230  0.00  0.00     0.084 H 
BRANCH   4   6
ATOM      6  C2  <0> d           0.079   1.179   2.503  0.00  0.00    -0.044 C 
ATOM      7  H5  <0> d           0.097   0.092   2.589  0.00  0.00     0.036 H 
ATOM      8  H6  <0> d           1.098   1.553   2.408  0.00  0.00     0.036 H 
BRANCH   6   9
ATOM      9  C1  <0> d          -0.570   1.778   3.752  0.00  0.00    -0.074 C 
ATOM     10  H2  <0> d          -0.588   2.864   3.667  0.00  0.00     0.027 H 
ATOM     11  H3  <0> d          -1.590   1.404   3.847  0.00  0.00     0.027 H 
ATOM     12  H4  <0> d           0.005   1.492   4.633  0.00  0.00     0.027 H 
ENDBRANCH   6   9
ENDBRANCH   4   6
BRANCH   4  13
ATOM     13  O1  <0> d          -2.030   0.991   1.336  0.00  0.00    -0.395 OA
ATOM     14  H14 <0> d          -2.023   0.025   1.372  0.00  0.00     0.210 HD
ENDBRANCH   4  13
ENDBRANCH   1   4
BRANCH   1  15
ATOM     15  C5  <0> d          -0.725   1.573  -1.185  0.00  0.00    -0.099 C 
ATOM     16  C6  <0> d          -1.292   1.962  -2.136  0.00  0.00    -0.072 C 
BRANCH  16  17
ATOM     17  C7  <0> d          -1.985   2.437  -3.296  0.00  0.00    -0.018 C 
ATOM     18  C8  <0> d          -2.487   1.571  -4.170  0.00  0.00    -0.108 C 
ATOM     19  H9  <0> d          -3.009   1.929  -5.045  0.00  0.00     0.068 H 
ATOM     20  H10 <0> d          -2.372   0.510  -4.006  0.00  0.00     0.068 H 
BRANCH  17  21
ATOM     21  C9  <0> d          -2.145   3.918  -3.525  0.00  0.00    -0.045 C 
ATOM     22  H11 <0> d          -1.673   4.465  -2.709  0.00  0.00     0.034 H 
ATOM     23  H12 <0> d          -1.673   4.192  -4.468  0.00  0.00     0.034 H 
ATOM     24  H13 <0> d          -3.205   4.167  -3.563  0.00  0.00     0.034 H 
ENDBRANCH  17  21
ENDBRANCH  16  17
ENDBRANCH   1  15
TORSDOF 7
