REMARK  3 active torsions:
REMARK  status: ('A' for Active; 'I' for Inactive)
REMARK    1  A    between atoms: C1_1  and  C2_2 
REMARK    2  A    between atoms: C2_2  and  C3_3 
REMARK    3  A    between atoms: C2_2  and  C4_4 
ROOT
ATOM      1  C2  <0> d           0.002  -0.004   0.002  0.00  0.00     0.003 C 
ATOM      2  H4  <0> d           0.512  -0.356  -0.895  0.00  0.00     0.051 H 
ENDROOT
BRANCH   1   3
ATOM      3  C1  <0> d          -0.019   1.526   0.010  0.00  0.00    -0.066 C 
ATOM      4  H1  <0> d           1.004   1.903   0.003  0.00  0.00     0.028 H 
ATOM      5  H2  <0> d          -0.546   1.887  -0.873  0.00  0.00     0.028 H 
ATOM      6  H3  <0> d          -0.529   1.877   0.907  0.00  0.00     0.028 H 
ENDBRANCH   1   3
BRANCH   1   7
ATOM      7  C3  <0> d           0.742  -0.511   1.242  0.00  0.00    -0.066 C 
ATOM      8  H5  <0> d           0.232  -0.159   2.138  0.00  0.00     0.028 H 
ATOM      9  H6  <0> d           0.757  -1.601   1.236  0.00  0.00     0.028 H 
ATOM     10  H7  <0> d           1.765  -0.134   1.234  0.00  0.00     0.028 H 
ENDBRANCH   1   7
BRANCH   1  11
ATOM     11  C4  <0> d          -1.412  -0.526   0.013  0.00  0.00     0.138 C 
ATOM     12  O1  <0> d          -1.749  -1.737  -0.468  0.00  0.00    -0.336 OA
ATOM     13  C6  <0> d          -3.175  -1.747  -0.674  0.00  0.00     0.044 C 
ATOM     14  C5  <0> d          -3.632  -0.653   0.322  0.00  0.00     0.037 C 
ATOM     15  H10 <0> d          -3.604  -2.715  -0.417  0.00  0.00     0.077 H 
ATOM     16  H11 <0> d          -3.421  -1.471  -1.700  0.00  0.00     0.077 H 
ATOM     17  N1  <0> d          -2.403   0.150   0.477  0.00  0.00    -0.268 NA
ATOM     18  H8  <0> d          -3.933  -1.092   1.272  0.00  0.00     0.070 H 
ATOM     19  H9  <0> d          -4.438  -0.053  -0.101  0.00  0.00     0.070 H 
ENDBRANCH   1  11
TORSDOF 3
