REMARK  3 active torsions:
REMARK  status: ('A' for Active; 'I' for Inactive)
REMARK    1  A    between atoms: C1_1  and  C2_2 
REMARK    2  A    between atoms: C2_2  and  C3_3 
REMARK    3  A    between atoms: C2_2  and  N1_4 
ROOT
ATOM      1  C2  <0> d          -0.019   1.526   0.010  0.00  0.00     0.027 C 
ATOM      2  H4  <0> d          -0.546   1.887  -0.873  0.00  0.00     0.074 H 
ENDROOT
BRANCH   1   3
ATOM      3  C1  <0> d           0.002  -0.004   0.002  0.00  0.00    -0.056 C 
ATOM      4  H1  <0> d          -1.020  -0.381   0.010  0.00  0.00     0.030 H 
ATOM      5  H2  <0> d           0.512  -0.356  -0.895  0.00  0.00     0.030 H 
ATOM      6  H3  <0> d           0.529  -0.365   0.885  0.00  0.00     0.030 H 
ENDBRANCH   1   3
BRANCH   1   7
ATOM      7  C3  <0> d           1.417   2.055  -0.000  0.00  0.00    -0.056 C 
ATOM      8  H5  <0> d           1.927   1.704  -0.897  0.00  0.00     0.030 H 
ATOM      9  H6  <0> d           1.402   3.145   0.006  0.00  0.00     0.030 H 
ATOM     10  H7  <0> d           1.944   1.694   0.883  0.00  0.00     0.030 H 
ENDBRANCH   1   7
BRANCH   1  11
ATOM     11  N1  <0> d          -0.704   1.998   1.216  0.00  0.00    -0.277 N 
ATOM     12  N2  <0> d          -2.056   2.353   1.309  0.00  0.00    -0.185 NA
ATOM     13  C6  <0> d          -2.298   2.720   2.542  0.00  0.00     0.023 A 
ATOM     14  C5  <0> d          -1.108   2.620   3.269  0.00  0.00    -0.048 A 
ATOM     15  H10 <0> d          -3.252   3.048   2.929  0.00  0.00     0.117 H 
ATOM     16  C4  <0> d          -0.144   2.174   2.431  0.00  0.00     0.000 A 
ATOM     17  H9  <0> d          -0.981   2.857   4.315  0.00  0.00     0.087 H 
ATOM     18  H8  <0> d           0.889   1.991   2.688  0.00  0.00     0.114 H 
ENDBRANCH   1  11
TORSDOF 3
