REMARK  2 active torsions:
REMARK  status: ('A' for Active; 'I' for Inactive)
REMARK    1  A    between atoms: C9_9  and  N1_10 
REMARK    2  A    between atoms: C9_9  and  O1_11 
ROOT
ATOM      1  C1  <0> d           1.175   1.784   0.000  0.00  0.00    -0.082 A 
ATOM      2  C2  <0> d          -0.013   1.076   0.008  0.00  0.00    -0.082 A 
ATOM      3  C3  <0> d          -1.218   1.751   0.017  0.00  0.00    -0.072 A 
ATOM      4  C4  <0> d          -1.241   3.135   0.031  0.00  0.00     0.010 A 
ATOM      5  C5  <0> d          -0.054   3.843   0.023  0.00  0.00    -0.047 A 
ATOM      6  C6  <0> d           1.154   3.165   0.008  0.00  0.00    -0.076 A 
ATOM      7  C7  <0> d          -0.344   5.329   0.034  0.00  0.00    -0.036 C 
ATOM      8  C8  <0> d          -1.814   5.450   0.488  0.00  0.00    -0.003 C 
ATOM      9  C9  <0> d          -2.410   4.097   0.047  0.00  0.00     0.251 C 
ATOM     10  H1  <0> d           2.118   1.258  -0.011  0.00  0.00     0.083 H 
ATOM     11  H2  <0> d           0.002  -0.004   0.002  0.00  0.00     0.083 H 
ATOM     12  H3  <0> d          -2.145   1.197   0.019  0.00  0.00     0.084 H 
ATOM     13  H4  <0> d           2.082   3.717   0.002  0.00  0.00     0.084 H 
ATOM     14  H5  <0> d           0.339   5.831   0.734  0.00  0.00     0.040 H 
ATOM     15  H6  <0> d          -0.198   5.738  -0.977  0.00  0.00     0.040 H 
ATOM     16  H7  <0> d          -1.849   5.598   1.578  0.00  0.00     0.041 H 
ATOM     17  H8  <0> d          -2.283   6.309  -0.014  0.00  0.00     0.041 H 
ENDROOT
BRANCH   9  18
ATOM     18  N1  <0> d          -3.425   3.649   1.009  0.00  0.00    -0.043 N 
ATOM     19  H9  <0> d          -4.267   4.356   1.010  0.00  0.00     0.278 HD
ATOM     20  H10 <0> d          -2.983   3.605   2.015  0.00  0.00     0.278 HD
ATOM     21  H12 <0> d          -3.786   2.650   0.723  0.00  0.00     0.278 HD
ENDBRANCH   9  18
BRANCH   9  22
ATOM     22  O1  <0> d          -2.978   4.208  -1.260  0.00  0.00    -0.361 OA
ATOM     23  H11 <0> d          -3.841   4.868  -1.430  0.00  0.00     0.213 HD
ENDBRANCH   9  22
TORSDOF 2
