REMARK  0 active torsions:
REMARK  status: ('A' for Active; 'I' for Inactive)
ROOT
ATOM      1  C1  <0> d          -0.018   1.507   0.010  0.00  0.00     0.025 C 
ATOM      2  C2  <0> d           1.413   2.050  -0.000  0.00  0.00     0.017 C 
ATOM      3  N1  <0> d           2.162   1.431  -1.108  0.00  0.00    -0.226 N 
ATOM      4  C3  <0> d           2.089   0.045  -1.195  0.00  0.00     0.678 A 
ATOM      5  N2  <0> d           2.940  -0.734  -1.769  0.00  0.00    -0.225 N 
ATOM      6  C4  <0> d           2.520  -2.137  -1.643  0.00  0.00     0.025 A 
ATOM      7  C5  <0> d           1.200  -2.066  -0.848  0.00  0.00     0.035 A 
ATOM      8  N3  <0> d           1.018  -0.631  -0.627  0.00  0.00    -0.150 N 
ATOM      9  C6  <0> d           0.002  -0.004   0.002  0.00  0.00     0.239 C 
ATOM     10  O1  <0> d          -0.874  -0.639   0.549  0.00  0.00    -0.272 OA
ATOM     11  H1  <0> d          -0.531   1.857   0.906  0.00  0.00     0.049 H 
ATOM     12  H2  <0> d          -0.548   1.867  -0.872  0.00  0.00     0.049 H 
ATOM     13  H3  <0> d           1.390   3.132  -0.136  0.00  0.00     0.065 H 
ATOM     14  H4  <0> d           1.899   1.812   0.946  0.00  0.00     0.065 H 
ATOM     15  H5  <0> d           2.675   1.959  -1.740  0.00  0.00     0.177 HD
ATOM     16  H6  <0> d           2.350  -2.574  -2.626  0.00  0.00     0.067 H 
ATOM     17  H7  <0> d           3.267  -2.710  -1.093  0.00  0.00     0.067 H 
ATOM     18  H8  <0> d           0.376  -2.473  -1.433  0.00  0.00     0.068 H 
ATOM     19  H9  <0> d           1.294  -2.592   0.102  0.00  0.00     0.068 H 
ATOM     20  H10 <0> d           3.744  -0.436  -2.222  0.00  0.00     0.177 HD
ENDROOT
TORSDOF 0
