REMARK  2 active torsions:
REMARK  status: ('A' for Active; 'I' for Inactive)
REMARK    1  A    between atoms: C1_1  and  C2_2 
REMARK    2  A    between atoms: C4_5  and  C7_10 
ROOT
ATOM      1  C2  <0> d          -0.729   1.579   1.267  0.00  0.00     0.036 C 
ATOM      2  H1  <0> d          -0.744   2.669   1.273  0.00  0.00     0.082 H 
ATOM      3  C3  <0> d           0.011   1.072   2.507  0.00  0.00    -0.029 C 
ATOM      4  C4  <0> d          -0.745   1.519   3.762  0.00  0.00     0.035 C 
ATOM      5  H2  <0> d          -0.753   2.608   3.814  0.00  0.00     0.056 H 
ATOM      6  C5  <0> d          -2.184   0.999   3.690  0.00  0.00    -0.033 C 
ATOM      7  C6  <0> d          -2.839   1.509   2.404  0.00  0.00     0.021 C 
ATOM      8  O1  <0> d          -2.069   1.084   1.278  0.00  0.00    -0.386 OA
ATOM      9  H6  <0> d           0.063  -0.016   2.481  0.00  0.00     0.038 H 
ATOM     10  H7  <0> d           1.020   1.485   2.523  0.00  0.00     0.038 H 
ATOM     11  H8  <0> d          -2.177  -0.091   3.688  0.00  0.00     0.037 H 
ATOM     12  H9  <0> d          -2.744   1.358   4.553  0.00  0.00     0.037 H 
ATOM     13  H10 <0> d          -3.849   1.106   2.327  0.00  0.00     0.074 H 
ATOM     14  H11 <0> d          -2.882   2.598   2.425  0.00  0.00     0.074 H 
ENDROOT
BRANCH   1  15
ATOM     15  C1  <0> d          -0.013   1.086   0.008  0.00  0.00    -0.052 C 
ATOM     16  H3  <0> d           0.002  -0.004   0.002  0.00  0.00     0.030 H 
ATOM     17  H4  <0> d           1.010   1.463   0.000  0.00  0.00     0.030 H 
ATOM     18  H5  <0> d          -0.540   1.447  -0.875  0.00  0.00     0.030 H 
ENDBRANCH   1  15
BRANCH   4  19
ATOM     19  C7  <0> d          -0.067   0.960   4.986  0.00  0.00     0.177 C 
ATOM     20  O2  <0> d           0.921   0.273   4.869  0.00  0.00    -0.648 OA
ATOM     21  O3  <0> d          -0.559   1.224   6.206  0.00  0.00    -0.648 OA
ENDBRANCH   4  19
TORSDOF 2
