REMARK  1 active torsions:
REMARK  status: ('A' for Active; 'I' for Inactive)
REMARK    1  A    between atoms: C2_2  and  N2_6 
ROOT
ATOM      1  C1  <0> d          -0.016   1.307   0.009  0.00  0.00     0.036 A 
ATOM      2  C2  <0> d           1.186   1.988   0.001  0.00  0.00     0.052 A 
ATOM      3  C3  <0> d           2.315   1.224  -0.013  0.00  0.00    -0.000 A 
ATOM      4  S1  <0> d           1.668  -0.384  -0.016  0.00  0.00     0.001 SA
ATOM      5  N1  <0> d           0.002  -0.004   0.002  0.00  0.00    -0.222 NA
ATOM      6  H1  <0> d          -0.953   1.844   0.017  0.00  0.00     0.119 H 
ATOM      7  H2  <0> d           3.348   1.539  -0.021  0.00  0.00     0.100 H 
ENDROOT
BRANCH   2   8
ATOM      8  N2  <0> d           1.242   3.395   0.008  0.00  0.00    -0.398 N 
ATOM      9  H3  <0> d           2.215   3.907   0.002  0.00  0.00     0.156 HD
ATOM     10  H4  <0> d           0.312   3.982   0.020  0.00  0.00     0.156 HD
ENDBRANCH   2   8
TORSDOF 1
