REMARK  3 active torsions:
REMARK  status: ('A' for Active; 'I' for Inactive)
REMARK    1  A    between atoms: C1_1  and  C2_2 
REMARK    2  A    between atoms: C4_5  and  N2_7 
REMARK    3  A    between atoms: N2_7  and  C5_8 
ROOT
ATOM      1  C2  <0> d           1.777  -0.213  -0.016  0.00  0.00    -0.000 A 
ATOM      2  C3  <0> d           2.183   1.079  -0.013  0.00  0.00     0.017 A 
ATOM      3  N1  <0> d           1.264   2.027   0.001  0.00  0.00    -0.236 NA
ATOM      4  C4  <0> d          -0.021   1.732   0.012  0.00  0.00     0.166 A 
ATOM      5  S1  <0> d           0.002  -0.004   0.002  0.00  0.00    -0.056 SA
ATOM      6  H4  <0> d           3.233   1.328  -0.022  0.00  0.00     0.116 H 
ENDROOT
BRANCH   4   7
ATOM      7  N2  <0> d          -1.111   2.588   0.022  0.00  0.00    -0.373 N 
ATOM      8  H5  <0> d          -2.012   2.227   0.024  0.00  0.00     0.161 HD
BRANCH   7   9
ATOM      9  C5  <0> d          -0.904   4.039   0.029  0.00  0.00    -0.019 C 
ATOM     10  H6  <0> d          -0.339   4.321   0.917  0.00  0.00     0.056 H 
ATOM     11  H7  <0> d          -0.348   4.330  -0.863  0.00  0.00     0.056 H 
ATOM     12  H8  <0> d          -1.870   4.544   0.036  0.00  0.00     0.056 H 
ENDBRANCH   7   9
ENDBRANCH   4   7
BRANCH   1  13
ATOM     13  C1  <0> d           2.596  -1.478  -0.030  0.00  0.00    -0.044 C 
ATOM     14  H1  <0> d           1.930  -2.341  -0.029  0.00  0.00     0.034 H 
ATOM     15  H2  <0> d           3.216  -1.499  -0.926  0.00  0.00     0.034 H 
ATOM     16  H3  <0> d           3.232  -1.508   0.854  0.00  0.00     0.034 H 
ENDBRANCH   1  13
TORSDOF 3
