REMARK  4 active torsions:
REMARK  status: ('A' for Active; 'I' for Inactive)
REMARK    1  A    between atoms: C1_1  and  O1_2 
REMARK    2  A    between atoms: O1_2  and  C2_3 
REMARK       I    between atoms: N1_8  and  C6_9 
REMARK    3  A    between atoms: C6_9  and  O3_11 
REMARK    4  A    between atoms: O3_11  and  C7_12 
ROOT
ATOM      1  C2  <0> d           0.595  -0.667  -1.117  0.00  0.00     0.109 C 
ATOM      2  H1  <0> d           0.320  -0.154  -2.039  0.00  0.00     0.118 H 
ATOM      3  C3  <0> d           0.120  -2.134  -1.170  0.00  0.00    -0.023 C 
ATOM      4  C4  <0> d           1.395  -2.896  -1.618  0.00  0.00    -0.046 C 
ATOM      5  C5  <0> d           2.507  -2.089  -0.902  0.00  0.00     0.002 C 
ATOM      6  N1  <0> d           2.058  -0.683  -0.971  0.00  0.00    -0.301 N 
ATOM      7  C6  <0> d           2.853   0.403  -0.910  0.00  0.00     0.364 C 
ATOM      8  O2  <0> d           2.363   1.515  -0.885  0.00  0.00    -0.238 OA
ATOM      9  H5  <0> d          -0.205  -2.470  -0.185  0.00  0.00     0.039 H 
ATOM     10  H6  <0> d          -0.679  -2.254  -1.902  0.00  0.00     0.039 H 
ATOM     11  H7  <0> d           1.375  -3.929  -1.269  0.00  0.00     0.035 H 
ATOM     12  H8  <0> d           1.516  -2.853  -2.700  0.00  0.00     0.035 H 
ATOM     13  H9  <0> d           2.600  -2.409   0.135  0.00  0.00     0.064 H 
ATOM     14  H10 <0> d           3.457  -2.208  -1.424  0.00  0.00     0.064 H 
ENDROOT
BRANCH   1  15
ATOM     15  O1  <0> d           0.002  -0.004   0.002  0.00  0.00    -0.371 OA
BRANCH  15  16
ATOM     16  C1  <0> d          -1.164   0.755  -0.323  0.00  0.00     0.006 C 
ATOM     17  H2  <0> d          -0.890   1.577  -0.983  0.00  0.00     0.066 H 
ATOM     18  H3  <0> d          -1.888   0.112  -0.823  0.00  0.00     0.066 H 
ATOM     19  H4  <0> d          -1.604   1.154   0.592  0.00  0.00     0.066 H 
ENDBRANCH  15  16
ENDBRANCH   1  15
BRANCH   7  20
ATOM     20  O3  <0> d           4.191   0.257  -0.876  0.00  0.00    -0.309 OA
BRANCH  20  21
ATOM     21  C7  <0> d           4.973   1.451  -0.812  0.00  0.00     0.015 C 
ATOM     22  H11 <0> d           4.768   2.067  -1.687  0.00  0.00     0.067 H 
ATOM     23  H12 <0> d           4.716   2.005   0.091  0.00  0.00     0.067 H 
ATOM     24  H13 <0> d           6.032   1.191  -0.790  0.00  0.00     0.067 H 
ENDBRANCH  20  21
ENDBRANCH   7  20
TORSDOF 4
