REMARK  3 active torsions:
REMARK  status: ('A' for Active; 'I' for Inactive)
REMARK    1  A    between atoms: C1_1  and  O1_2 
REMARK    2  A    between atoms: O1_2  and  C2_3 
REMARK    3  A    between atoms: C2_3  and  C3_5 
ROOT
ATOM      1  C3  <0> d          -0.060   3.879  -0.961  0.00  0.00     0.031 C 
ATOM      2  C4  <0> d           1.202   3.030  -1.128  0.00  0.00    -0.047 C 
ATOM      3  C5  <0> d           1.274   1.997   0.001  0.00  0.00    -0.009 C 
ATOM      4  C6  <0> d          -0.014   1.203   0.009  0.00  0.00     0.127 C 
ATOM      5  O3  <0> d           0.002  -0.004   0.002  0.00  0.00    -0.298 OA
ATOM      6  C7  <0> d          -1.323   1.961   0.019  0.00  0.00    -0.009 C 
ATOM      7  C8  <0> d          -1.301   2.996  -1.105  0.00  0.00    -0.047 C 
ATOM      8  H4  <0> d          -0.057   4.342   0.026  0.00  0.00     0.055 H 
ATOM      9  H5  <0> d           2.081   3.674  -1.088  0.00  0.00     0.034 H 
ATOM     10  H6  <0> d           1.171   2.518  -2.089  0.00  0.00     0.034 H 
ATOM     11  H7  <0> d           1.393   2.466   0.875  0.00  0.00     0.044 H 
ATOM     12  H8  <0> d           2.116   1.326  -0.170  0.00  0.00     0.044 H 
ATOM     13  H9  <0> d          -2.080   1.322  -0.121  0.00  0.00     0.044 H 
ATOM     14  H10 <0> d          -1.446   2.467   0.976  0.00  0.00     0.044 H 
ATOM     15  H11 <0> d          -2.196   3.616  -1.048  0.00  0.00     0.034 H 
ATOM     16  H12 <0> d          -1.273   2.484  -2.067  0.00  0.00     0.034 H 
ENDROOT
BRANCH   1  17
ATOM     17  C2  <0> d          -0.084   4.954  -2.017  0.00  0.00     0.262 C 
ATOM     18  O2  <0> d           0.815   5.032  -2.820  0.00  0.00    -0.265 OA
BRANCH  17  19
ATOM     19  O1  <0> d          -1.105   5.824  -2.065  0.00  0.00    -0.326 OA
BRANCH  19  20
ATOM     20  C1  <0> d          -1.062   6.832  -3.109  0.00  0.00     0.013 C 
ATOM     21  H1  <0> d          -0.165   7.440  -2.991  0.00  0.00     0.067 H 
ATOM     22  H2  <0> d          -1.046   6.346  -4.084  0.00  0.00     0.067 H 
ATOM     23  H3  <0> d          -1.944   7.469  -3.035  0.00  0.00     0.067 H 
ENDBRANCH  19  20
ENDBRANCH  17  19
ENDBRANCH   1  17
TORSDOF 3
