REMARK  4 active torsions:
REMARK  status: ('A' for Active; 'I' for Inactive)
REMARK    1  A    between atoms: C1_1  and  N1_2 
REMARK    2  A    between atoms: N1_2  and  S1_3 
REMARK    3  A    between atoms: S1_3  and  C2_6 
REMARK    4  A    between atoms: C2_6  and  C3_7 
ROOT
ATOM      1  S1  <0> d          -0.017   1.417   0.010  0.00  0.00     0.235 S 
ATOM      2  O1  <0> d           0.002  -0.004   0.002  0.00  0.00    -0.205 OA
ATOM      3  O2  <0> d           1.195   2.158   0.002  0.00  0.00    -0.205 OA
ENDROOT
BRANCH   1   4
ATOM      4  N1  <0> d          -0.778   1.837  -1.400  0.00  0.00    -0.323 N 
ATOM      5  H4  <0> d          -1.287   1.059  -1.988  0.00  0.00     0.171 HD
BRANCH   4   6
ATOM      6  C1  <0> d          -0.958   3.250  -1.742  0.00  0.00    -0.011 C 
ATOM      7  H1  <0> d          -1.480   3.330  -2.707  0.00  0.00     0.057 H 
ATOM      8  H2  <0> d           0.025   3.738  -1.815  0.00  0.00     0.057 H 
ATOM      9  H3  <0> d          -1.556   3.743  -0.961  0.00  0.00     0.057 H 
ENDBRANCH   4   6
ENDBRANCH   1   4
BRANCH   1  10
ATOM     10  C2  <0> d          -1.110   2.020   1.327  0.00  0.00     0.125 C 
ATOM     11  H5  <0> d          -1.226   3.110   1.236  0.00  0.00     0.075 H 
ATOM     12  H6  <0> d          -2.094   1.537   1.236  0.00  0.00     0.075 H 
BRANCH  10  13
ATOM     13  C3  <0> d          -0.509   1.688   2.668  0.00  0.00     0.188 C 
ATOM     14  O3  <0> d           0.547   1.105   2.730  0.00  0.00    -0.647 OA
ATOM     15  O4  <0> d          -1.148   2.041   3.795  0.00  0.00    -0.647 OA
ENDBRANCH  10  13
ENDBRANCH   1  10
TORSDOF 4
