REMARK  2 active torsions:
REMARK  status: ('A' for Active; 'I' for Inactive)
REMARK    1  A    between atoms: C1_1  and  C2_2 
REMARK    2  A    between atoms: C4_5  and  C5_7 
ROOT
ATOM      1  C2  <0> d           0.002  -0.004   0.002  0.00  0.00    -0.050 A 
ATOM      2  H1  <0> d          -0.882  -0.484  -0.417  0.00  0.00     0.040 H 
ATOM      3  C3  <0> d           1.351  -0.691  -0.221  0.00  0.00    -0.054 A 
ATOM      4  C4  <0> d           0.703  -0.708   1.166  0.00  0.00    -0.025 A 
ATOM      5  H2  <0> d           1.150  -0.080   1.938  0.00  0.00     0.048 H 
ATOM      6  H6  <0> d           1.354  -1.623  -0.786  0.00  0.00     0.034 H 
ATOM      7  H7  <0> d           2.223  -0.053  -0.362  0.00  0.00     0.034 H 
ENDROOT
BRANCH   4   8
ATOM      8  C5  <0> d           0.118  -2.011   1.645  0.00  0.00    -0.054 A 
ATOM      9  C10 <0> d          -0.318  -2.134   2.951  0.00  0.00    -0.076 A 
ATOM     10  C9  <0> d          -0.859  -3.329   3.389  0.00  0.00    -0.082 A 
ATOM     11  H12 <0> d          -0.240  -1.296   3.628  0.00  0.00     0.084 H 
ATOM     12  C8  <0> d          -0.955  -4.402   2.525  0.00  0.00    -0.083 A 
ATOM     13  H11 <0> d          -1.204  -3.423   4.409  0.00  0.00     0.083 H 
ATOM     14  C7  <0> d          -0.513  -4.281   1.220  0.00  0.00    -0.082 A 
ATOM     15  H10 <0> d          -1.375  -5.337   2.868  0.00  0.00     0.083 H 
ATOM     16  C6  <0> d           0.023  -3.085   0.780  0.00  0.00    -0.076 A 
ATOM     17  H9  <0> d          -0.588  -5.120   0.544  0.00  0.00     0.083 H 
ATOM     18  H8  <0> d           0.368  -2.990  -0.239  0.00  0.00     0.084 H 
ENDBRANCH   4   8
BRANCH   1  19
ATOM     19  C1  <0> d          -0.019   1.526   0.010  0.00  0.00    -0.072 C 
ATOM     20  H3  <0> d           1.004   1.903   0.003  0.00  0.00     0.028 H 
ATOM     21  H4  <0> d          -0.546   1.887  -0.873  0.00  0.00     0.028 H 
ATOM     22  H5  <0> d          -0.529   1.877   0.907  0.00  0.00     0.028 H 
ENDBRANCH   1  19
TORSDOF 2
