REMARK  5 active torsions:
REMARK  status: ('A' for Active; 'I' for Inactive)
REMARK    1  A    between atoms: C1_1  and  C2_2 
REMARK    2  A    between atoms: C5_5  and  C9_10 
REMARK    3  A    between atoms: C7_7  and  O1_8 
REMARK    4  A    between atoms: O1_8  and  C8_9 
REMARK    5  A    between atoms: C9_10  and  O2_11 
ROOT
ATOM      1  C2  <0> d          -2.009   2.470   3.526  0.00  0.00    -0.029 A 
ATOM      2  C3  <0> d          -1.008   3.230   2.953  0.00  0.00    -0.074 A 
ATOM      3  C4  <0> d          -0.359   2.779   1.818  0.00  0.00    -0.074 A 
ATOM      4  C5  <0> d          -0.718   1.572   1.248  0.00  0.00    -0.032 A 
ATOM      5  C6  <0> d          -1.718   0.808   1.817  0.00  0.00    -0.042 A 
ATOM      6  C7  <0> d          -2.367   1.256   2.959  0.00  0.00     0.074 A 
ATOM      7  H4  <0> d          -0.729   4.176   3.394  0.00  0.00     0.084 H 
ATOM      8  H5  <0> d           0.426   3.373   1.374  0.00  0.00     0.084 H 
ATOM      9  H6  <0> d          -1.995  -0.137   1.373  0.00  0.00     0.088 H 
ENDROOT
BRANCH   4  10
ATOM     10  C9  <0> d          -0.013   1.086   0.008  0.00  0.00     0.041 C 
ATOM     11  H10 <0> d           1.019   1.466   0.000  0.00  0.00     0.081 H 
ATOM     12  H11 <0> d           0.002  -0.014   0.002  0.00  0.00     0.081 H 
BRANCH  10  13
ATOM     13  O2  <0> d          -0.704   1.559  -1.150  0.00  0.00    -0.396 OA
ATOM     14  H12 <0> d          -0.334   1.304  -2.154  0.00  0.00     0.209 HD
ENDBRANCH  10  13
ENDBRANCH   4  10
BRANCH   6  15
ATOM     15  O1  <0> d          -3.352   0.506   3.520  0.00  0.00    -0.355 OA
BRANCH  15  16
ATOM     16  C8  <0> d          -3.669  -0.732   2.882  0.00  0.00     0.010 C 
ATOM     17  H7  <0> d          -4.476  -1.234   3.435  0.00  0.00     0.066 H 
ATOM     18  H8  <0> d          -2.777  -1.377   2.870  0.00  0.00     0.066 H 
ATOM     19  H9  <0> d          -3.996  -0.540   1.849  0.00  0.00     0.066 H 
ENDBRANCH  15  16
ENDBRANCH   6  15
BRANCH   1  20
ATOM     20  C1  <0> d          -2.712   2.960   4.766  0.00  0.00    -0.049 C 
ATOM     21  H1  <0> d          -2.294   3.932   5.064  0.00  0.00     0.033 H 
ATOM     22  H2  <0> d          -2.568   2.234   5.580  0.00  0.00     0.033 H 
ATOM     23  H3  <0> d          -3.787   3.070   4.559  0.00  0.00     0.033 H 
ENDBRANCH   1  20
TORSDOF 5
