REMARK  6 active torsions:
REMARK  status: ('A' for Active; 'I' for Inactive)
REMARK    1  A    between atoms: C1_1  and  C2_2 
REMARK    2  A    between atoms: C2_2  and  C3_3 
REMARK    3  A    between atoms: C3_3  and  C4_4 
REMARK    4  A    between atoms: C4_4  and  C5_5 
REMARK    5  A    between atoms: C5_5  and  C6_7 
REMARK    6  A    between atoms: C5_5  and  O1_9 
ROOT
ATOM      1  C4  <0> d          -0.013   1.086   0.008  0.00  0.00    -0.038 C 
ATOM      2  H9  <0> d           0.002  -0.004   0.002  0.00  0.00     0.037 H 
ATOM      3  H10 <0> d           1.010   1.463   0.000  0.00  0.00     0.037 H 
ENDROOT
BRANCH   1   4
ATOM      4  C3  <0> d          -0.753   1.593  -1.232  0.00  0.00    -0.063 C 
ATOM      5  H7  <0> d          -1.775   1.215  -1.224  0.00  0.00     0.033 H 
ATOM      6  H8  <0> d          -0.767   2.683  -1.226  0.00  0.00     0.033 H 
BRANCH   4   7
ATOM      7  C2  <0> d          -0.037   1.099  -2.490  0.00  0.00    -0.068 C 
ATOM      8  H5  <0> d           0.986   1.476  -2.498  0.00  0.00     0.032 H 
ATOM      9  H6  <0> d          -0.022   0.009  -2.496  0.00  0.00     0.032 H 
BRANCH   7  10
ATOM     10  C1  <0> d          -0.777   1.606  -3.730  0.00  0.00    -0.077 C 
ATOM     11  H2  <0> d          -0.266   1.254  -4.627  0.00  0.00     0.027 H 
ATOM     12  H3  <0> d          -1.799   1.229  -3.722  0.00  0.00     0.027 H 
ATOM     13  H4  <0> d          -0.791   2.696  -3.724  0.00  0.00     0.027 H 
ENDBRANCH   7  10
ENDBRANCH   4   7
ENDBRANCH   1   4
BRANCH   1  14
ATOM     14  C5  <0> d          -0.729   1.579   1.267  0.00  0.00     0.051 C 
ATOM     15  H1  <0> d          -1.776   1.277   1.232  0.00  0.00     0.089 H 
BRANCH  14  16
ATOM     16  C6  <0> d          -0.074   0.981   2.485  0.00  0.00    -0.085 C 
ATOM     17  C7  <0> d           0.367   1.760   3.441  0.00  0.00    -0.122 C 
ATOM     18  H12 <0> d           0.261   2.831   3.357  0.00  0.00     0.066 H 
ATOM     19  H13 <0> d           0.837   1.331   4.314  0.00  0.00     0.066 H 
ATOM     20  H11 <0> d           0.032  -0.091   2.569  0.00  0.00     0.079 H 
ENDBRANCH  14  16
BRANCH  14  21
ATOM     21  O1  <0> d          -0.647   3.004   1.334  0.00  0.00    -0.392 OA
ATOM     22  H14 <0> d           0.258   3.345   1.368  0.00  0.00     0.210 HD
ENDBRANCH  14  21
ENDBRANCH   1  14
TORSDOF 6
