REMARK  1 active torsions:
REMARK  status: ('A' for Active; 'I' for Inactive)
REMARK    1  A    between atoms: C3_3  and  C6_7 
REMARK       I    between atoms: C6_7  and  N1_9 
ROOT
ATOM      1  C1  <0> d          -2.540   4.894   0.944  0.00  0.00    -0.049 C 
ATOM      2  C2  <0> d          -2.664   3.650   0.035  0.00  0.00    -0.048 C 
ATOM      3  C3  <0> d          -1.208   3.131   0.025  0.00  0.00     0.040 C 
ATOM      4  H1  <0> d          -0.671   3.522  -0.840  0.00  0.00     0.060 H 
ATOM      5  C4  <0> d          -0.604   3.658   1.305  0.00  0.00    -0.094 C 
ATOM      6  C5  <0> d          -1.330   4.620   1.806  0.00  0.00    -0.106 C 
ATOM      7  H2  <0> d          -2.382   5.790   0.342  0.00  0.00     0.038 H 
ATOM      8  H3  <0> d          -3.430   5.003   1.562  0.00  0.00     0.038 H 
ATOM      9  H4  <0> d          -2.987   3.928  -0.969  0.00  0.00     0.035 H 
ATOM     10  H5  <0> d          -3.339   2.913   0.470  0.00  0.00     0.035 H 
ATOM     11  H6  <0> d           0.309   3.288   1.748  0.00  0.00     0.077 H 
ATOM     12  H7  <0> d          -1.097   5.150   2.718  0.00  0.00     0.076 H 
ENDROOT
BRANCH   3  13
ATOM     13  C6  <0> d          -1.187   1.624   0.017  0.00  0.00     0.223 C 
ATOM     14  O1  <0> d          -2.229   1.003   0.018  0.00  0.00    -0.273 OA
ATOM     15  N1  <0> d          -0.011   0.966   0.007  0.00  0.00    -0.370 N 
ATOM     16  H8  <0> d           0.002  -0.004   0.002  0.00  0.00     0.159 HD
ATOM     17  H9  <0> d           0.822   1.462   0.002  0.00  0.00     0.159 HD
ENDBRANCH   3  13
TORSDOF 1
