REMARK  1 active torsions:
REMARK  status: ('A' for Active; 'I' for Inactive)
REMARK    1  A    between atoms: C3_3  and  C6_9 
ROOT
ATOM      1  C1  <0> d          -1.222   2.031   0.019  0.00  0.00    -0.039 A 
ATOM      2  C2  <0> d          -1.196   3.417   0.031  0.00  0.00    -0.045 A 
ATOM      3  C3  <0> d           0.032   4.073   0.023  0.00  0.00     0.136 A 
ATOM      4  N1  <0> d           1.168   3.383   0.009  0.00  0.00    -0.211 NA
ATOM      5  C4  <0> d           1.176   2.067   0.002  0.00  0.00     0.249 A 
ATOM      6  C5  <0> d          -0.016   1.347   0.009  0.00  0.00     0.174 A 
ATOM      7  F1  <0> d           0.002  -0.004   0.002  0.00  0.00    -0.201 F 
ATOM      8  F2  <0> d           2.354   1.407  -0.013  0.00  0.00    -0.181 F 
ATOM      9  H1  <0> d          -2.161   1.497   0.021  0.00  0.00     0.088 H 
ATOM     10  H2  <0> d          -2.117   3.981   0.043  0.00  0.00     0.087 H 
ENDROOT
BRANCH   3  11
ATOM     11  C6  <0> d           0.074   5.551   0.030  0.00  0.00     0.229 C 
ATOM     12  O1  <0> d          -0.961   6.188   0.043  0.00  0.00    -0.643 OA
ATOM     13  O2  <0> d           1.259   6.192   0.022  0.00  0.00    -0.643 OA
ENDBRANCH   3  11
TORSDOF 1
