REMARK  2 active torsions:
REMARK  status: ('A' for Active; 'I' for Inactive)
REMARK    1  A    between atoms: C1_1  and  O1_2 
REMARK    2  A    between atoms: O1_2  and  C2_3 
ROOT
ATOM      1  C2  <0> d           2.381   1.340  -0.013  0.00  0.00     0.164 A 
ATOM      2  C3  <0> d           1.189   2.062   0.002  0.00  0.00    -0.030 A 
ATOM      3  C4  <0> d          -0.017   1.389   0.010  0.00  0.00    -0.051 A 
ATOM      4  C5  <0> d           0.002  -0.004   0.002  0.00  0.00     0.061 A 
ATOM      5  C6  <0> d           1.240  -0.670  -0.013  0.00  0.00     0.087 A 
ATOM      6  N1  <0> d           2.379   0.021  -0.020  0.00  0.00    -0.223 NA
ATOM      7  C7  <0> d           0.925  -2.100  -0.018  0.00  0.00    -0.038 A 
ATOM      8  C8  <0> d          -0.414  -2.210  -0.005  0.00  0.00    -0.020 A 
ATOM      9  N2  <0> d          -0.983  -0.968   0.007  0.00  0.00    -0.364 N 
ATOM     10  H1  <0> d          -1.936  -0.791   0.017  0.00  0.00     0.165 HD
ATOM     11  H5  <0> d           1.208   3.142   0.007  0.00  0.00     0.090 H 
ATOM     12  H6  <0> d          -0.952   1.929   0.017  0.00  0.00     0.087 H 
ATOM     13  H7  <0> d           1.636  -2.913  -0.029  0.00  0.00     0.089 H 
ATOM     14  H8  <0> d          -0.960  -3.142  -0.004  0.00  0.00     0.111 H 
ENDROOT
BRANCH   1  15
ATOM     15  O1  <0> d           3.563   2.005  -0.020  0.00  0.00    -0.339 OA
BRANCH  15  16
ATOM     16  C1  <0> d           4.753   1.213  -0.036  0.00  0.00     0.012 C 
ATOM     17  H2  <0> d           5.625   1.867  -0.041  0.00  0.00     0.067 H 
ATOM     18  H3  <0> d           4.779   0.579   0.850  0.00  0.00     0.067 H 
ATOM     19  H4  <0> d           4.762   0.589  -0.930  0.00  0.00     0.067 H 
ENDBRANCH  15  16
ENDBRANCH   1  15
TORSDOF 2
