REMARK  4 active torsions:
REMARK  status: ('A' for Active; 'I' for Inactive)
REMARK    1  A    between atoms: C1_1  and  C2_2 
REMARK    2  A    between atoms: C2_2  and  C4_4 
REMARK    3  A    between atoms: C4_4  and  C8_10 
REMARK    4  A    between atoms: C6_6  and  C7_8 
ROOT
ATOM      1  C4  <0> d          -1.224  -2.337  -0.100  0.00  0.00    -0.007 A 
ATOM      2  C5  <0> d          -2.181  -2.503  -1.283  0.00  0.00    -0.040 A 
ATOM      3  C6  <0> d          -1.581  -1.131  -0.970  0.00  0.00     0.042 A 
ATOM      4  H1  <0> d          -2.242  -0.378  -0.540  0.00  0.00     0.058 H 
ATOM      5  H7  <0> d          -3.237  -2.654  -1.059  0.00  0.00     0.035 H 
ATOM      6  H8  <0> d          -1.807  -3.027  -2.163  0.00  0.00     0.035 H 
ENDROOT
BRANCH   1   7
ATOM      7  C2  <0> d           0.162  -2.911  -0.241  0.00  0.00    -0.084 C 
ATOM      8  C3  <0> d           1.011  -2.824   0.753  0.00  0.00    -0.119 C 
ATOM      9  H5  <0> d           2.019  -3.192   0.635  0.00  0.00     0.067 H 
ATOM     10  H6  <0> d           0.702  -2.384   1.690  0.00  0.00     0.067 H 
BRANCH   7  11
ATOM     11  C1  <0> d           0.572  -3.585  -1.525  0.00  0.00    -0.054 C 
ATOM     12  H2  <0> d           0.496  -2.875  -2.349  0.00  0.00     0.033 H 
ATOM     13  H3  <0> d           1.601  -3.934  -1.440  0.00  0.00     0.033 H 
ATOM     14  H4  <0> d          -0.085  -4.434  -1.716  0.00  0.00     0.033 H 
ENDBRANCH   7  11
ENDBRANCH   1   7
BRANCH   1  15
ATOM     15  C8  <0> d          -1.823  -2.396   1.306  0.00  0.00    -0.064 C 
ATOM     16  H9  <0> d          -2.911  -2.401   1.238  0.00  0.00     0.028 H 
ATOM     17  H10 <0> d          -1.486  -3.304   1.808  0.00  0.00     0.028 H 
ATOM     18  H11 <0> d          -1.499  -1.525   1.876  0.00  0.00     0.028 H 
ENDBRANCH   1  15
BRANCH   3  19
ATOM     19  C7  <0> d          -0.519  -0.606  -1.902  0.00  0.00     0.178 C 
ATOM     20  O1  <0> d           0.565  -1.138  -1.942  0.00  0.00    -0.648 OA
ATOM     21  O2  <0> d          -0.778   0.451  -2.688  0.00  0.00    -0.648 OA
ENDBRANCH   3  19
TORSDOF 4
