REMARK  4 active torsions:
REMARK  status: ('A' for Active; 'I' for Inactive)
REMARK    1  A    between atoms: C1_1  and  C2_2 
REMARK    2  A    between atoms: C2_2  and  O2_4 
REMARK    3  A    between atoms: O2_4  and  C3_5 
REMARK    4  A    between atoms: C4_6  and  C5_7 
ROOT
ATOM      1  C3  <0> d          -3.602   1.626   0.028  0.00  0.00     0.022 C 
ATOM      2  C4  <0> d          -2.435   0.974   0.019  0.00  0.00    -0.062 C 
ATOM      3  H4  <0> d          -3.616   2.706   0.034  0.00  0.00     0.123 H 
ATOM      4  H5  <0> d          -2.421  -0.106   0.013  0.00  0.00     0.086 H 
ENDROOT
BRANCH   1   5
ATOM      5  O2  <0> d          -4.766   0.933   0.030  0.00  0.00    -0.291 OA
BRANCH   5   6
ATOM      6  C2  <0> d          -5.902   1.649   0.039  0.00  0.00     0.259 C 
ATOM      7  O1  <0> d          -5.855   2.856   0.045  0.00  0.00    -0.265 OA
BRANCH   6   8
ATOM      8  C1  <0> d          -7.235   0.946   0.042  0.00  0.00     0.004 C 
ATOM      9  H1  <0> d          -7.078  -0.132   0.035  0.00  0.00     0.041 H 
ATOM     10  H2  <0> d          -7.792   1.227   0.936  0.00  0.00     0.041 H 
ATOM     11  H3  <0> d          -7.801   1.236  -0.844  0.00  0.00     0.041 H 
ENDBRANCH   6   8
ENDBRANCH   5   6
ENDBRANCH   1   5
BRANCH   2  12
ATOM     12  C5  <0> d          -1.173   1.725   0.017  0.00  0.00    -0.090 C 
ATOM     13  C6  <0> d          -0.013   1.076   0.008  0.00  0.00    -0.121 C 
ATOM     14  H7  <0> d           0.002  -0.004   0.002  0.00  0.00     0.066 H 
ATOM     15  H8  <0> d           0.915   1.629   0.002  0.00  0.00     0.066 H 
ATOM     16  H6  <0> d          -1.188   2.805   0.023  0.00  0.00     0.082 H 
ENDBRANCH   2  12
TORSDOF 4
