REMARK  1 active torsions:
REMARK  status: ('A' for Active; 'I' for Inactive)
REMARK    1  A    between atoms: C2_2  and  C4_7 
ROOT
ATOM      1  C1  <0> d           2.618   3.748  -0.003  0.00  0.00    -0.001 A 
ATOM      2  C2  <0> d           1.235   3.094   0.007  0.00  0.00     0.083 A 
ATOM      3  H1  <0> d           0.447   3.592   0.572  0.00  0.00     0.064 H 
ATOM      4  C3  <0> d           1.745   3.788  -1.258  0.00  0.00     0.193 A 
ATOM      5  F1  <0> d           1.163   5.013  -1.602  0.00  0.00    -0.225 F 
ATOM      6 Cl1  <0> d           2.229   2.741  -2.644  0.00  0.00    -0.082 Cl
ATOM      7  H2  <0> d           2.741   4.676   0.555  0.00  0.00     0.041 H 
ATOM      8  H3  <0> d           3.486   3.088  -0.015  0.00  0.00     0.041 H 
ENDROOT
BRANCH   2   9
ATOM      9  C4  <0> d           1.177   1.588  -0.001  0.00  0.00     0.181 C 
ATOM     10  O1  <0> d           2.199   0.944  -0.014  0.00  0.00    -0.648 OA
ATOM     11  O2  <0> d          -0.011   0.963   0.007  0.00  0.00    -0.648 OA
ENDBRANCH   2   9
TORSDOF 1
