REMARK  4 active torsions:
REMARK  status: ('A' for Active; 'I' for Inactive)
REMARK    1  A    between atoms: C4_5  and  C8_10 
REMARK    2  A    between atoms: C4_5  and  C9_12 
REMARK    3  A    between atoms: C8_10  and  O1_11 
REMARK    4  A    between atoms: C9_12  and  O2_13 
ROOT
ATOM      1  C1  <0> d           1.308  -0.259   0.840  0.00  0.00    -0.051 C 
ATOM      2  C2  <0> d           0.002  -0.004   0.002  0.00  0.00    -0.036 C 
ATOM      3  H1  <0> d          -0.904  -0.502   0.346  0.00  0.00     0.046 H 
ATOM      4  C3  <0> d           0.488  -0.369  -1.437  0.00  0.00    -0.047 C 
ATOM      5  C4  <0> d           1.950   0.140  -1.470  0.00  0.00     0.010 C 
ATOM      6  C5  <0> d           2.162   0.749  -0.048  0.00  0.00    -0.026 C 
ATOM      7  H2  <0> d           3.195   0.913   0.258  0.00  0.00     0.047 H 
ATOM      8  C6  <0> d           1.226   1.963   0.001  0.00  0.00    -0.101 C 
ATOM      9  C7  <0> d          -0.019   1.529   0.011  0.00  0.00    -0.102 C 
ATOM     10  H3  <0> d           1.206   0.057   1.878  0.00  0.00     0.035 H 
ATOM     11  H4  <0> d           1.665  -1.285   0.755  0.00  0.00     0.035 H 
ATOM     12  H5  <0> d           0.454  -1.448  -1.590  0.00  0.00     0.035 H 
ATOM     13  H6  <0> d          -0.114   0.144  -2.187  0.00  0.00     0.035 H 
ATOM     14  H7  <0> d           1.534   2.998   0.004  0.00  0.00     0.077 H 
ATOM     15  H8  <0> d          -0.903   2.149   0.018  0.00  0.00     0.076 H 
ENDROOT
BRANCH   5  16
ATOM     16  C8  <0> d           2.918  -1.020  -1.709  0.00  0.00     0.026 C 
ATOM     17  H9  <0> d           3.942  -0.646  -1.703  0.00  0.00     0.075 H 
ATOM     18  H10 <0> d           2.798  -1.762  -0.919  0.00  0.00     0.075 H 
BRANCH  16  19
ATOM     19  O1  <0> d           2.638  -1.622  -2.974  0.00  0.00    -0.400 OA
ATOM     20  H11 <0> d           3.215  -2.367  -3.192  0.00  0.00     0.209 HD
ENDBRANCH  16  19
ENDBRANCH   5  16
BRANCH   5  21
ATOM     21  C9  <0> d           2.121   1.212  -2.548  0.00  0.00     0.026 C 
ATOM     22  H12 <0> d           1.440   2.040  -2.349  0.00  0.00     0.075 H 
ATOM     23  H13 <0> d           3.148   1.576  -2.539  0.00  0.00     0.075 H 
BRANCH  21  24
ATOM     24  O2  <0> d           1.826   0.651  -3.829  0.00  0.00    -0.400 OA
ATOM     25  H14 <0> d           1.914   1.276  -4.562  0.00  0.00     0.209 HD
ENDBRANCH  21  24
ENDBRANCH   5  21
TORSDOF 4
