REMARK  7 active torsions:
REMARK  status: ('A' for Active; 'I' for Inactive)
REMARK    1  A    between atoms: C1_1  and  C2_2 
REMARK    2  A    between atoms: C2_2  and  C3_3 
REMARK    3  A    between atoms: C3_3  and  C4_5 
REMARK    4  A    between atoms: C3_3  and  O1_9 
REMARK    5  A    between atoms: C4_5  and  C5_6 
REMARK    6  A    between atoms: C4_5  and  C6_7 
REMARK    7  A    between atoms: C4_5  and  C7_8 
ROOT
ATOM      1  C4  <0> d           0.630  -2.023  -1.329  0.00  0.00    -0.025 C 
ENDROOT
BRANCH   1   2
ATOM      2  C3  <0> d           0.718  -0.497  -1.257  0.00  0.00     0.041 C 
ATOM      3  H1  <0> d           0.244  -0.064  -2.138  0.00  0.00     0.084 H 
BRANCH   2   4
ATOM      4  C2  <0> d           0.002  -0.004   0.002  0.00  0.00    -0.044 C 
ATOM      5  H5  <0> d           0.529  -0.365   0.885  0.00  0.00     0.036 H 
ATOM      6  H6  <0> d          -1.020  -0.381   0.010  0.00  0.00     0.036 H 
BRANCH   4   7
ATOM      7  C1  <0> d          -0.019   1.526   0.010  0.00  0.00    -0.074 C 
ATOM      8  H2  <0> d           1.004   1.903   0.003  0.00  0.00     0.027 H 
ATOM      9  H3  <0> d          -0.546   1.887  -0.873  0.00  0.00     0.027 H 
ATOM     10  H4  <0> d          -0.529   1.877   0.907  0.00  0.00     0.027 H 
ENDBRANCH   4   7
ENDBRANCH   2   4
BRANCH   2  11
ATOM     11  O1  <0> d           2.090  -0.101  -1.210  0.00  0.00    -0.395 OA
ATOM     12  H16 <0> d           2.575  -0.451  -0.451  0.00  0.00     0.210 HD
ENDBRANCH   2  11
ENDBRANCH   1   2
BRANCH   1  13
ATOM     13  C5  <0> d          -0.839  -2.448  -1.378  0.00  0.00    -0.067 C 
ATOM     14  H7  <0> d          -1.313  -2.015  -2.259  0.00  0.00     0.028 H 
ATOM     15  H8  <0> d          -0.901  -3.535  -1.429  0.00  0.00     0.028 H 
ATOM     16  H9  <0> d          -1.349  -2.096  -0.481  0.00  0.00     0.028 H 
ENDBRANCH   1  13
BRANCH   1  17
ATOM     17  C6  <0> d           1.347  -2.517  -2.587  0.00  0.00    -0.067 C 
ATOM     18  H10 <0> d           2.393  -2.214  -2.552  0.00  0.00     0.028 H 
ATOM     19  H11 <0> d           1.284  -3.604  -2.639  0.00  0.00     0.028 H 
ATOM     20  H12 <0> d           0.873  -2.084  -3.468  0.00  0.00     0.028 H 
ENDBRANCH   1  17
BRANCH   1  21
ATOM     21  C7  <0> d           1.295  -2.631  -0.092  0.00  0.00    -0.067 C 
ATOM     22  H13 <0> d           0.785  -2.280   0.805  0.00  0.00     0.028 H 
ATOM     23  H14 <0> d           1.233  -3.718  -0.143  0.00  0.00     0.028 H 
ATOM     24  H15 <0> d           2.342  -2.329  -0.057  0.00  0.00     0.028 H 
ENDBRANCH   1  21
TORSDOF 7
