REMARK  3 active torsions:
REMARK  status: ('A' for Active; 'I' for Inactive)
REMARK    1  A    between atoms: C1_1  and  C2_2 
REMARK    2  A    between atoms: C5_5  and  N1_9 
REMARK    3  A    between atoms: N1_9  and  C8_10 
ROOT
ATOM      1  C2  <0> d           1.176   1.782   0.000  0.00  0.00    -0.023 A 
ATOM      2  C3  <0> d          -0.013   1.076   0.008  0.00  0.00    -0.072 A 
ATOM      3  C4  <0> d          -1.218   1.749   0.017  0.00  0.00    -0.057 A 
ATOM      4  C5  <0> d          -1.238   3.138   0.029  0.00  0.00     0.030 A 
ATOM      5  C6  <0> d          -0.044   3.847   0.021  0.00  0.00    -0.020 A 
ATOM      6  C7  <0> d           1.161   3.167   0.007  0.00  0.00     0.124 A 
ATOM      7  F1  <0> d           2.324   3.855  -0.001  0.00  0.00    -0.205 F 
ATOM      8  H4  <0> d           0.002  -0.004   0.002  0.00  0.00     0.084 H 
ATOM      9  H5  <0> d          -2.146   1.196   0.019  0.00  0.00     0.086 H 
ATOM     10  H6  <0> d          -0.056   4.927   0.026  0.00  0.00     0.091 H 
ENDROOT
BRANCH   4  11
ATOM     11  N1  <0> d          -2.456   3.821   0.044  0.00  0.00    -0.394 N 
ATOM     12  H7  <0> d          -2.470   4.921   0.050  0.00  0.00     0.159 HD
BRANCH  11  13
ATOM     13  C8  <0> d          -3.715   3.072   0.053  0.00  0.00    -0.021 C 
ATOM     14  H8  <0> d          -4.561   3.776   0.064  0.00  0.00     0.056 H 
ATOM     15  H9  <0> d          -3.757   2.435   0.948  0.00  0.00     0.056 H 
ATOM     16  H10 <0> d          -3.774   2.443  -0.848  0.00  0.00     0.056 H 
ENDBRANCH  11  13
ENDBRANCH   4  11
BRANCH   1  17
ATOM     17  C1  <0> d           2.490   1.044  -0.016  0.00  0.00    -0.048 C 
ATOM     18  H1  <0> d           2.301  -0.040  -0.019  0.00  0.00     0.033 H 
ATOM     19  H2  <0> d           3.072   1.312   0.878  0.00  0.00     0.033 H 
ATOM     20  H3  <0> d           3.055   1.321  -0.918  0.00  0.00     0.033 H 
ENDBRANCH   1  17
TORSDOF 3
