REMARK  4 active torsions:
REMARK  status: ('A' for Active; 'I' for Inactive)
REMARK    1  A    between atoms: C1_1  and  C2_2 
REMARK    2  A    between atoms: C6_6  and  O1_9 
REMARK    3  A    between atoms: C7_7  and  C8_8 
REMARK    4  A    between atoms: O1_9  and  C9_10 
ROOT
ATOM      1  C2  <0> d           2.398   0.024  -0.020  0.00  0.00    -0.053 A 
ATOM      2  C3  <0> d           1.208  -0.680  -0.013  0.00  0.00    -0.077 A 
ATOM      3  C4  <0> d           0.002  -0.004   0.002  0.00  0.00    -0.080 A 
ATOM      4  C5  <0> d          -0.017   1.377   0.010  0.00  0.00    -0.050 A 
ATOM      5  C6  <0> d           1.176   2.086   0.002  0.00  0.00     0.074 A 
ATOM      6  C7  <0> d           2.385   1.405  -0.013  0.00  0.00    -0.023 A 
ATOM      7  H4  <0> d           1.220  -1.760  -0.019  0.00  0.00     0.084 H 
ATOM      8  H5  <0> d          -0.926  -0.556   0.008  0.00  0.00     0.083 H 
ATOM      9  H6  <0> d          -0.959   1.905   0.017  0.00  0.00     0.087 H 
ENDROOT
BRANCH   5  10
ATOM     10  O1  <0> d           1.160   3.445   0.009  0.00  0.00    -0.355 OA
BRANCH  10  11
ATOM     11  C9  <0> d          -0.121   4.079   0.024  0.00  0.00     0.010 C 
ATOM     12  H10 <0> d          -0.683   3.784  -0.862  0.00  0.00     0.066 H 
ATOM     13  H11 <0> d          -0.666   3.775   0.918  0.00  0.00     0.066 H 
ATOM     14  H12 <0> d           0.009   5.161   0.028  0.00  0.00     0.066 H 
ENDBRANCH  10  11
ENDBRANCH   5  10
BRANCH   6  15
ATOM     15  C8  <0> d           3.682   2.172  -0.020  0.00  0.00    -0.048 C 
ATOM     16  H7  <0> d           3.986   2.362  -1.049  0.00  0.00     0.033 H 
ATOM     17  H8  <0> d           3.546   3.120   0.500  0.00  0.00     0.033 H 
ATOM     18  H9  <0> d           4.452   1.588   0.484  0.00  0.00     0.033 H 
ENDBRANCH   6  15
BRANCH   1  19
ATOM     19  C1  <0> d           3.711  -0.716  -0.036  0.00  0.00    -0.051 C 
ATOM     20  H1  <0> d           4.018  -0.889  -1.068  0.00  0.00     0.033 H 
ATOM     21  H2  <0> d           4.469  -0.122   0.473  0.00  0.00     0.033 H 
ATOM     22  H3  <0> d           3.595  -1.672   0.474  0.00  0.00     0.033 H 
ENDBRANCH   1  19
TORSDOF 4
