REMARK  3 active torsions:
REMARK  status: ('A' for Active; 'I' for Inactive)
REMARK    1  A    between atoms: C1_1  and  C2_2 
REMARK    2  A    between atoms: C2_2  and  C3_3 
REMARK    3  A    between atoms: C2_2  and  C4_4 
ROOT
ATOM      1  C2  <0> d           2.505   1.337  -0.014  0.00  0.00    -0.003 C 
ATOM      2  H5  <0> d           3.123   2.122  -0.450  0.00  0.00     0.050 H 
ENDROOT
BRANCH   1   3
ATOM      3  C1  <0> d           2.968   1.059   1.418  0.00  0.00    -0.067 C 
ATOM      4  H2  <0> d           2.350   0.275   1.854  0.00  0.00     0.028 H 
ATOM      5  H3  <0> d           4.009   0.737   1.406  0.00  0.00     0.028 H 
ATOM      6  H4  <0> d           2.875   1.968   2.012  0.00  0.00     0.028 H 
ENDBRANCH   1   3
BRANCH   1   7
ATOM      7  C3  <0> d           2.635   0.061  -0.849  0.00  0.00    -0.067 C 
ATOM      8  H6  <0> d           2.305   0.259  -1.869  0.00  0.00     0.028 H 
ATOM      9  H7  <0> d           3.677  -0.260  -0.860  0.00  0.00     0.028 H 
ATOM     10  H8  <0> d           2.017  -0.723  -0.413  0.00  0.00     0.028 H 
ENDBRANCH   1   7
BRANCH   1  11
ATOM     11  C4  <0> d           1.065   1.782   0.002  0.00  0.00     0.106 A 
ATOM     12  N2  <0> d           0.651   3.020   0.012  0.00  0.00    -0.246 NA
ATOM     13  C6  <0> d          -0.690   3.038   0.025  0.00  0.00     0.019 A 
ATOM     14  C5  <0> d          -1.124   1.763   0.016  0.00  0.00    -0.005 A 
ATOM     15  H10 <0> d          -1.312   3.920   0.035  0.00  0.00     0.117 H 
ATOM     16  N1  <0> d          -0.011   0.966   0.007  0.00  0.00    -0.353 N 
ATOM     17  H9  <0> d          -2.152   1.433   0.018  0.00  0.00     0.113 H 
ATOM     18  H1  <0> d           0.003  -0.034   0.006  0.00  0.00     0.166 HD
ENDBRANCH   1  11
TORSDOF 3
