REMARK  2 active torsions:
REMARK  status: ('A' for Active; 'I' for Inactive)
REMARK    1  A    between atoms: C1_1  and  O1_2 
REMARK    2  A    between atoms: O1_2  and  C2_3 
ROOT
ATOM      1  C2  <0> d          -1.191  -0.632   0.010  0.00  0.00     0.051 C 
ATOM      2  C3  <0> d          -2.262   0.132   0.019  0.00  0.00     0.010 C 
ATOM      3  C4  <0> d          -3.604  -0.199   0.002  0.00  0.00     0.243 C 
ATOM      4  O2  <0> d          -4.357   0.752   0.105  0.00  0.00    -0.269 OA
ATOM      5  N1  <0> d          -4.209  -1.361  -0.106  0.00  0.00    -0.358 N 
ATOM      6  C5  <0> d          -3.616  -2.675  -0.096  0.00  0.00    -0.004 C 
ATOM      7  C6  <0> d          -2.279  -2.743  -0.789  0.00  0.00    -0.045 C 
ATOM      8  C7  <0> d          -1.163  -2.117   0.002  0.00  0.00    -0.019 C 
ATOM      9  H4  <0> d          -2.059   1.192   0.044  0.00  0.00     0.095 H 
ATOM     10  H5  <0> d          -5.174  -1.331  -0.205  0.00  0.00     0.162 HD
ATOM     11  H6  <0> d          -3.487  -2.991   0.940  0.00  0.00     0.064 H 
ATOM     12  H7  <0> d          -4.298  -3.369  -0.586  0.00  0.00     0.064 H 
ATOM     13  H8  <0> d          -2.033  -3.789  -0.973  0.00  0.00     0.035 H 
ATOM     14  H9  <0> d          -2.356  -2.230  -1.748  0.00  0.00     0.035 H 
ATOM     15  H10 <0> d          -0.211  -2.445  -0.417  0.00  0.00     0.043 H 
ATOM     16  H11 <0> d          -1.228  -2.472   1.030  0.00  0.00     0.043 H 
ENDROOT
BRANCH   1  17
ATOM     17  O1  <0> d           0.002  -0.004   0.002  0.00  0.00    -0.360 OA
BRANCH  17  18
ATOM     18  C1  <0> d          -0.017   1.425   0.010  0.00  0.00     0.010 C 
ATOM     19  H1  <0> d           1.005   1.802   0.002  0.00  0.00     0.066 H 
ATOM     20  H2  <0> d          -0.544   1.786  -0.873  0.00  0.00     0.066 H 
ATOM     21  H3  <0> d          -0.527   1.776   0.907  0.00  0.00     0.066 H 
ENDBRANCH  17  18
ENDBRANCH   1  17
TORSDOF 2
