REMARK  4 active torsions:
REMARK  status: ('A' for Active; 'I' for Inactive)
REMARK    1  A    between atoms: C1_1  and  C2_2 
REMARK    2  A    between atoms: C2_2  and  C3_4 
REMARK    3  A    between atoms: C7_8  and  N1_11 
REMARK    4  A    between atoms: C8_9  and  O2_10 
ROOT
ATOM      1  C3  <0> d           1.187   2.090   0.002  0.00  0.00     0.045 A 
ATOM      2  C4  <0> d          -0.017   1.372   0.010  0.00  0.00    -0.067 A 
ATOM      3  C5  <0> d           0.002  -0.004   0.002  0.00  0.00    -0.080 A 
ATOM      4  C6  <0> d           1.207  -0.689  -0.013  0.00  0.00    -0.055 A 
ATOM      5  C7  <0> d           2.407   0.004  -0.020  0.00  0.00     0.060 A 
ATOM      6  C8  <0> d           2.407   1.397  -0.013  0.00  0.00     0.105 A 
ATOM      7  H4  <0> d          -0.959   1.899   0.017  0.00  0.00     0.085 H 
ATOM      8  H5  <0> d          -0.928  -0.553   0.008  0.00  0.00     0.083 H 
ATOM      9  H6  <0> d           1.210  -1.769  -0.018  0.00  0.00     0.087 H 
ENDROOT
BRANCH   1  10
ATOM     10  C2  <0> d           1.172   3.557   0.010  0.00  0.00     0.158 C 
ATOM     11  O1  <0> d           2.216   4.175   0.004  0.00  0.00    -0.293 OA
BRANCH  10  12
ATOM     12  C1  <0> d          -0.141   4.297   0.027  0.00  0.00    -0.017 C 
ATOM     13  H1  <0> d          -0.894   3.639   0.031  0.00  0.00     0.038 H 
ATOM     14  H2  <0> d          -0.197   4.918   0.921  0.00  0.00     0.038 H 
ATOM     15  H3  <0> d          -0.214   4.928  -0.858  0.00  0.00     0.038 H 
ENDBRANCH  10  12
ENDBRANCH   1  10
BRANCH   6  16
ATOM     16  O2  <0> d           3.579   2.080  -0.021  0.00  0.00    -0.357 OA
ATOM     17  H7  <0> d           3.911   2.282  -0.907  0.00  0.00     0.217 HD
ENDBRANCH   6  16
BRANCH   5  18
ATOM     18  N1  <0> d           3.619  -0.696  -0.035  0.00  0.00    -0.397 N 
ATOM     19  H8  <0> d           3.619  -1.666  -0.039  0.00  0.00     0.156 HD
ATOM     20  H9  <0> d           4.459  -0.211  -0.040  0.00  0.00     0.156 HD
ENDBRANCH   5  18
TORSDOF 4
