REMARK  1 active torsions:
REMARK  status: ('A' for Active; 'I' for Inactive)
REMARK    1  A    between atoms: C1_1  and  N1_2 
ROOT
ATOM      1  N1  <0> d           0.002  -0.004   0.002  0.00  0.00    -0.356 N 
ATOM      2  C2  <0> d           0.008  -0.790  -1.110  0.00  0.00    -0.019 A 
ATOM      3  C3  <0> d           0.028  -2.088  -0.744  0.00  0.00    -0.056 A 
ATOM      4  C4  <0> d           0.035  -2.136   0.665  0.00  0.00    -0.001 A 
ATOM      5  C5  <0> d           0.024  -0.810   1.117  0.00  0.00     0.113 A 
ATOM      6  C6  <0> d           0.033  -0.567   2.503  0.00  0.00     0.273 A 
ATOM      7  O1  <0> d           0.020   0.581   2.917  0.00  0.00    -0.266 OA
ATOM      8  N2  <0> d           0.054  -1.593   3.373  0.00  0.00    -0.332 N 
ATOM      9  H1  <0> d           0.060  -1.401   4.324  0.00  0.00     0.168 HD
ATOM     10  C7  <0> d           0.068  -2.894   2.962  0.00  0.00    -0.019 A 
ATOM     11  C8  <0> d           0.054  -3.213   1.653  0.00  0.00    -0.056 A 
ATOM     12  H5  <0> d          -0.001  -0.430  -2.128  0.00  0.00     0.111 H 
ATOM     13  H6  <0> d           0.036  -2.937  -1.411  0.00  0.00     0.086 H 
ATOM     14  H7  <0> d           0.085  -3.683   3.699  0.00  0.00     0.111 H 
ATOM     15  H8  <0> d           0.067  -4.246   1.340  0.00  0.00     0.086 H 
ENDROOT
BRANCH   1  16
ATOM     16  C1  <0> d          -0.018   1.461   0.010  0.00  0.00    -0.014 C 
ATOM     17  H2  <0> d           1.005   1.838   0.002  0.00  0.00     0.057 H 
ATOM     18  H3  <0> d          -0.545   1.822  -0.873  0.00  0.00     0.057 H 
ATOM     19  H4  <0> d          -0.528   1.812   0.907  0.00  0.00     0.057 H 
ENDBRANCH   1  16
TORSDOF 1
