REMARK  0 active torsions:
REMARK  status: ('A' for Active; 'I' for Inactive)
ROOT
ATOM      1  C1  <0> d           1.204  -0.690  -0.013  0.00  0.00    -0.081 A 
ATOM      2  C2  <0> d           2.401  -0.007  -0.021  0.00  0.00    -0.071 A 
ATOM      3  C3  <0> d           2.408   1.389  -0.013  0.00  0.00    -0.007 A 
ATOM      4  C4  <0> d           3.469   2.401  -0.017  0.00  0.00    -0.056 A 
ATOM      5  C5  <0> d           2.865   3.599  -0.005  0.00  0.00    -0.022 A 
ATOM      6  N1  <0> d           1.506   3.436   0.007  0.00  0.00    -0.364 N 
ATOM      7  H1  <0> d           0.846   4.316   0.018  0.00  0.00     0.165 HD
ATOM      8  C6  <0> d           1.195   2.099   0.002  0.00  0.00     0.063 A 
ATOM      9  C7  <0> d          -0.017   1.389   0.010  0.00  0.00     0.072 A 
ATOM     10  C8  <0> d           0.002  -0.004   0.002  0.00  0.00    -0.061 A 
ATOM     11  C9  <0> d          -1.264   2.093   0.019  0.00  0.00     0.102 C 
ATOM     12  N2  <0> d          -2.253   2.651   0.027  0.00  0.00    -0.191 NA
ATOM     13  H2  <0> d           1.204  -1.770  -0.019  0.00  0.00     0.083 H 
ATOM     14  H3  <0> d           3.334  -0.551  -0.032  0.00  0.00     0.084 H 
ATOM     15  H4  <0> d           4.533   2.217  -0.029  0.00  0.00     0.086 H 
ATOM     16  H5  <0> d           3.375   4.551  -0.004  0.00  0.00     0.111 H 
ATOM     17  H6  <0> d          -0.928  -0.553   0.008  0.00  0.00     0.086 H 
ENDROOT
TORSDOF 0
