REMARK  2 active torsions:
REMARK  status: ('A' for Active; 'I' for Inactive)
REMARK    1  A    between atoms: C1_1  and  O1_2 
REMARK    2  A    between atoms: O1_2  and  C2_3 
ROOT
ATOM      1  C2  <0> d          -0.016   1.324   0.009  0.00  0.00     0.179 A 
ATOM      2  C3  <0> d           1.208   2.006   0.001  0.00  0.00     0.064 A 
ATOM      3  C4  <0> d           1.611   3.411   0.005  0.00  0.00    -0.050 A 
ATOM      4  C5  <0> d           2.953   3.430  -0.008  0.00  0.00    -0.020 A 
ATOM      5  N1  <0> d           3.437   2.148  -0.020  0.00  0.00    -0.350 N 
ATOM      6  H1  <0> d           4.376   1.907  -0.031  0.00  0.00     0.166 HD
ATOM      7  C6  <0> d           2.399   1.256  -0.015  0.00  0.00     0.143 A 
ATOM      8  N2  <0> d           2.315  -0.073  -0.021  0.00  0.00    -0.223 NA
ATOM      9  C7  <0> d           1.143  -0.670  -0.013  0.00  0.00     0.091 A 
ATOM     10  N3  <0> d           0.002  -0.004   0.002  0.00  0.00    -0.217 NA
ATOM     11  H5  <0> d           0.955   4.269   0.016  0.00  0.00     0.087 H 
ATOM     12  H6  <0> d           3.561   4.323  -0.010  0.00  0.00     0.111 H 
ATOM     13  H7  <0> d           1.112  -1.750  -0.018  0.00  0.00     0.146 H 
ENDROOT
BRANCH   1  14
ATOM     14  O1  <0> d          -1.188   2.002   0.019  0.00  0.00    -0.339 OA
BRANCH  14  15
ATOM     15  C1  <0> d          -2.388   1.224   0.020  0.00  0.00     0.012 C 
ATOM     16  H2  <0> d          -2.417   0.600  -0.873  0.00  0.00     0.067 H 
ATOM     17  H3  <0> d          -2.409   0.591   0.907  0.00  0.00     0.067 H 
ATOM     18  H4  <0> d          -3.251   1.889   0.028  0.00  0.00     0.067 H 
ENDBRANCH  14  15
ENDBRANCH   1  14
TORSDOF 2
