REMARK  1 active torsions:
REMARK  status: ('A' for Active; 'I' for Inactive)
REMARK    1  A    between atoms: C6_7  and  O1_14 
ROOT
ATOM      1  C1  <0> d          -0.750   3.109   1.275  0.00  0.00    -0.065 C 
ATOM      2  C2  <0> d          -0.729   1.579   1.267  0.00  0.00    -0.065 C 
ATOM      3  C3  <0> d          -0.013   1.086   0.008  0.00  0.00    -0.061 C 
ATOM      4  C4  <0> d          -0.753   1.593  -1.232  0.00  0.00    -0.048 C 
ATOM      5  H1  <0> d          -1.775   1.215  -1.224  0.00  0.00     0.040 H 
ATOM      6  C5  <0> d          -0.037   1.099  -2.490  0.00  0.00    -0.037 C 
ATOM      7  C6  <0> d           1.399   1.629  -2.501  0.00  0.00     0.036 C 
ATOM      8  H2  <0> d           1.926   1.268  -1.618  0.00  0.00     0.082 H 
ATOM      9  C7  <0> d           1.378   3.159  -2.493  0.00  0.00    -0.041 C 
ATOM     10  C8  <0> d           0.662   3.652  -1.234  0.00  0.00    -0.059 C 
ATOM     11  C9  <0> d          -0.773   3.123  -1.223  0.00  0.00    -0.051 C 
ATOM     12  H3  <0> d          -1.301   3.484  -2.106  0.00  0.00     0.040 H 
ATOM     13  C10 <0> d          -1.490   3.616   0.036  0.00  0.00    -0.061 C 
ATOM     14  H4  <0> d           0.273   3.486   1.268  0.00  0.00     0.033 H 
ATOM     15  H5  <0> d          -1.260   3.461   2.172  0.00  0.00     0.033 H 
ATOM     16  H6  <0> d          -1.751   1.202   1.275  0.00  0.00     0.033 H 
ATOM     17  H7  <0> d          -0.202   1.218   2.150  0.00  0.00     0.033 H 
ATOM     18  H8  <0> d           0.002  -0.004   0.002  0.00  0.00     0.033 H 
ATOM     19  H9  <0> d           1.010   1.463   0.000  0.00  0.00     0.033 H 
ATOM     20  H10 <0> d          -0.022   0.009  -2.496  0.00  0.00     0.037 H 
ATOM     21  H11 <0> d          -0.564   1.460  -3.373  0.00  0.00     0.037 H 
ATOM     22  H12 <0> d           0.851   3.520  -3.376  0.00  0.00     0.036 H 
ATOM     23  H13 <0> d           2.401   3.536  -2.501  0.00  0.00     0.036 H 
ATOM     24  H14 <0> d           0.647   4.742  -1.228  0.00  0.00     0.033 H 
ATOM     25  H15 <0> d           1.189   3.291  -0.351  0.00  0.00     0.033 H 
ATOM     26  H16 <0> d          -1.504   4.706   0.042  0.00  0.00     0.033 H 
ATOM     27  H17 <0> d          -2.512   3.239   0.043  0.00  0.00     0.033 H 
ENDROOT
BRANCH   7  28
ATOM     28  O1  <0> d           2.068   1.168  -3.677  0.00  0.00    -0.396 OA
ATOM     29  H18 <0> d           2.985   1.466  -3.750  0.00  0.00     0.210 HD
ENDBRANCH   7  28
TORSDOF 1
