REMARK  3 active torsions:
REMARK  status: ('A' for Active; 'I' for Inactive)
REMARK    1  A    between atoms: C1_1  and  C2_2 
REMARK    2  A    between atoms: C2_2  and  C3_4 
REMARK    3  A    between atoms: C2_2  and  C6_7 
ROOT
ATOM      1  C6  <0> d          -1.433  -0.534   0.013  0.00  0.00     0.117 C 
ATOM      2  C7  <0> d          -2.145  -0.046  -1.180  0.00  0.00     0.079 C 
ATOM      3  N1  <0> d          -2.695   0.330  -2.100  0.00  0.00    -0.196 NA
ATOM      4  C8  <0> d          -1.413  -2.006   0.005  0.00  0.00     0.079 C 
ATOM      5  N2  <0> d          -1.398  -3.141  -0.002  0.00  0.00    -0.196 NA
ATOM      6  H10 <0> d          -1.944  -0.182   0.910  0.00  0.00     0.086 H 
ENDROOT
BRANCH   1   7
ATOM      7  C2  <0> d           0.002  -0.004   0.002  0.00  0.00    -0.026 C 
ATOM      8  H1  <0> d           0.512  -0.356  -0.895  0.00  0.00     0.043 H 
BRANCH   7   9
ATOM      9  C1  <0> d          -0.019   1.526   0.010  0.00  0.00    -0.070 C 
ATOM     10  H2  <0> d           1.004   1.903   0.003  0.00  0.00     0.028 H 
ATOM     11  H3  <0> d          -0.546   1.887  -0.873  0.00  0.00     0.028 H 
ATOM     12  H4  <0> d          -0.529   1.877   0.907  0.00  0.00     0.028 H 
ENDBRANCH   7   9
BRANCH   7  13
ATOM     13  C3  <0> d           0.742  -0.511   1.242  0.00  0.00    -0.049 A 
ATOM     14  C5  <0> d           0.871  -2.025   1.417  0.00  0.00    -0.061 A 
ATOM     15  C4  <0> d           2.095  -1.193   1.027  0.00  0.00    -0.061 A 
ATOM     16  H8  <0> d           0.834  -2.419   2.433  0.00  0.00     0.033 H 
ATOM     17  H9  <0> d           0.429  -2.660   0.650  0.00  0.00     0.033 H 
ATOM     18  H6  <0> d           2.457  -1.281   0.003  0.00  0.00     0.033 H 
ATOM     19  H7  <0> d           2.862  -1.040   1.786  0.00  0.00     0.033 H 
ATOM     20  H5  <0> d           0.619   0.091   2.142  0.00  0.00     0.040 H 
ENDBRANCH   7  13
ENDBRANCH   1   7
TORSDOF 3
