REMARK  3 active torsions:
REMARK  status: ('A' for Active; 'I' for Inactive)
REMARK    1  A    between atoms: C1_1  and  N1_2 
REMARK    2  A    between atoms: N1_2  and  C2_3 
REMARK       I    between atoms: N1_2  and  C3_4 
REMARK    3  A    between atoms: C3_4  and  C4_6 
ROOT
ATOM      1  N1  <0> d           3.558   2.231  -0.121  0.00  0.00    -0.356 N 
ATOM      2  C3  <0> d           2.546   1.345  -0.048  0.00  0.00     0.260 C 
ATOM      3  O1  <0> d           2.783   0.158   0.080  0.00  0.00    -0.267 OA
ENDROOT
BRANCH   2   4
ATOM      4  C4  <0> d           1.158   1.810  -0.123  0.00  0.00     0.072 A 
ATOM      5  S1  <0> d           0.535   3.431  -0.536  0.00  0.00    -0.097 SA
ATOM      6  C7  <0> d          -1.161   3.104  -0.387  0.00  0.00    -0.044 A 
ATOM      7  C6  <0> d          -1.194   1.791  -0.039  0.00  0.00    -0.075 A 
ATOM      8  H9  <0> d          -1.990   3.780  -0.538  0.00  0.00     0.095 H 
ATOM      9  C5  <0> d          -0.014   1.106   0.108  0.00  0.00    -0.060 A 
ATOM     10  H8  <0> d          -2.139   1.293   0.124  0.00  0.00     0.084 H 
ATOM     11  H7  <0> d           0.002   0.063   0.388  0.00  0.00     0.085 H 
ENDBRANCH   2   4
BRANCH   1  12
ATOM     12  C1  <0> d           4.942   1.757  -0.210  0.00  0.00    -0.016 C 
ATOM     13  H1  <0> d           5.216   1.633  -1.258  0.00  0.00     0.056 H 
ATOM     14  H2  <0> d           5.606   2.485   0.256  0.00  0.00     0.056 H 
ATOM     15  H3  <0> d           5.032   0.801   0.304  0.00  0.00     0.056 H 
ENDBRANCH   1  12
BRANCH   1  16
ATOM     16  C2  <0> d           3.276   3.669  -0.112  0.00  0.00    -0.016 C 
ATOM     17  H4  <0> d           2.215   3.829   0.077  0.00  0.00     0.056 H 
ATOM     18  H5  <0> d           3.861   4.149   0.673  0.00  0.00     0.056 H 
ATOM     19  H6  <0> d           3.542   4.098  -1.078  0.00  0.00     0.056 H 
ENDBRANCH   1  16
TORSDOF 3
