REMARK  1 active torsions:
REMARK  status: ('A' for Active; 'I' for Inactive)
REMARK    1  A    between atoms: C5_6  and  O1_9 
ROOT
ATOM      1  C1  <0> d           1.417   2.055  -0.000  0.00  0.00    -0.063 C 
ATOM      2  C2  <0> d           2.157   1.548   1.239  0.00  0.00    -0.062 C 
ATOM      3  C3  <0> d           2.178   0.019   1.231  0.00  0.00    -0.034 C 
ATOM      4  C4  <0> d           0.742  -0.511   1.242  0.00  0.00     0.103 C 
ATOM      5  H1  <0> d           0.232  -0.159   2.138  0.00  0.00     0.095 H 
ATOM      6  C5  <0> d           0.002  -0.004   0.002  0.00  0.00     0.065 C 
ATOM      7  H2  <0> d           0.512  -0.356  -0.895  0.00  0.00     0.087 H 
ATOM      8  C6  <0> d          -0.019   1.526   0.010  0.00  0.00    -0.038 C 
ATOM      9  F1  <0> d           0.761  -1.910   1.234  0.00  0.00    -0.247 F 
ATOM     10  H3  <0> d           1.927   1.704  -0.897  0.00  0.00     0.033 H 
ATOM     11  H4  <0> d           1.402   3.145   0.006  0.00  0.00     0.033 H 
ATOM     12  H5  <0> d           1.647   1.900   2.136  0.00  0.00     0.033 H 
ATOM     13  H6  <0> d           3.179   1.926   1.231  0.00  0.00     0.033 H 
ATOM     14  H7  <0> d           2.705  -0.342   2.114  0.00  0.00     0.037 H 
ATOM     15  H8  <0> d           2.688  -0.333   0.334  0.00  0.00     0.037 H 
ATOM     16  H9  <0> d          -0.546   1.887  -0.873  0.00  0.00     0.036 H 
ATOM     17  H10 <0> d          -0.529   1.877   0.907  0.00  0.00     0.036 H 
ENDROOT
BRANCH   6  18
ATOM     18  O1  <0> d          -1.339  -0.499   0.012  0.00  0.00    -0.393 OA
ATOM     19  H11 <0> d          -1.402  -1.464   0.008  0.00  0.00     0.210 HD
ENDBRANCH   6  18
TORSDOF 1
