REMARK  2 active torsions:
REMARK  status: ('A' for Active; 'I' for Inactive)
REMARK    1  A    between atoms: C1_1  and  C2_2 
REMARK    2  A    between atoms: C2_2  and  C6_8 
ROOT
ATOM      1  C2  <0> d           0.002  -0.004   0.002  0.00  0.00     0.155 C 
ATOM      2  C3  <0> d          -1.440  -0.567   0.108  0.00  0.00    -0.018 C 
ATOM      3  C4  <0> d          -1.625  -0.526   1.651  0.00  0.00     0.019 C 
ATOM      4  C5  <0> d          -0.214  -0.786   2.150  0.00  0.00     0.260 C 
ATOM      5  O1  <0> d           0.073  -1.185   3.254  0.00  0.00    -0.265 OA
ATOM      6  O2  <0> d           0.663  -0.504   1.175  0.00  0.00    -0.299 OA
ATOM      7  H4  <0> d          -2.158   0.081  -0.396  0.00  0.00     0.038 H 
ATOM      8  H5  <0> d          -1.497  -1.588  -0.272  0.00  0.00     0.038 H 
ATOM      9  H6  <0> d          -1.976   0.455   1.973  0.00  0.00     0.048 H 
ATOM     10  H7  <0> d          -2.305  -1.311   1.981  0.00  0.00     0.048 H 
ENDROOT
BRANCH   1  11
ATOM     11  C1  <0> d          -0.019   1.526   0.010  0.00  0.00    -0.037 C 
ATOM     12  H1  <0> d           1.004   1.903   0.003  0.00  0.00     0.032 H 
ATOM     13  H2  <0> d          -0.546   1.887  -0.873  0.00  0.00     0.032 H 
ATOM     14  H3  <0> d          -0.529   1.877   0.907  0.00  0.00     0.032 H 
ENDBRANCH   1  11
BRANCH   1  15
ATOM     15  C6  <0> d           0.680  -0.514  -1.243  0.00  0.00     0.209 C 
ATOM     16  O3  <0> d           1.686  -1.198  -1.153  0.00  0.00    -0.646 OA
ATOM     17  O4  <0> d           0.224  -0.243  -2.341  0.00  0.00    -0.646 OA
ENDBRANCH   1  15
TORSDOF 2
