REMARK  2 active torsions:
REMARK  status: ('A' for Active; 'I' for Inactive)
REMARK    1  A    between atoms: C3_3  and  O1_8 
REMARK    2  A    between atoms: C6_6  and  N1_7 
ROOT
ATOM      1  C1  <0> d          -0.017   1.384   0.010  0.00  0.00    -0.055 A 
ATOM      2  C2  <0> d           1.170   2.091   0.002  0.00  0.00    -0.049 A 
ATOM      3  C3  <0> d           2.380   1.414  -0.013  0.00  0.00     0.065 A 
ATOM      4  C4  <0> d           2.400   0.027  -0.021  0.00  0.00    -0.049 A 
ATOM      5  C5  <0> d           1.214  -0.681  -0.013  0.00  0.00    -0.055 A 
ATOM      6  C6  <0> d           0.002  -0.004   0.002  0.00  0.00     0.025 A 
ATOM      7  H1  <0> d          -0.959   1.912   0.026  0.00  0.00     0.087 H 
ATOM      8  H2  <0> d           1.156   3.171   0.008  0.00  0.00     0.087 H 
ATOM      9  H3  <0> d           3.343  -0.500  -0.033  0.00  0.00     0.087 H 
ATOM     10  H4  <0> d           1.230  -1.761  -0.019  0.00  0.00     0.087 H 
ENDROOT
BRANCH   6  11
ATOM     11  N1  <0> d          -1.200  -0.721   0.010  0.00  0.00    -0.399 N 
ATOM     12  H5  <0> d          -2.047  -0.247   0.021  0.00  0.00     0.156 HD
ATOM     13  H6  <0> d          -1.186  -1.690   0.005  0.00  0.00     0.156 HD
ENDBRANCH   6  11
BRANCH   3  14
ATOM     14  O1  <0> d           3.549   2.110  -0.021  0.00  0.00    -0.361 OA
ATOM     15  H7  <0> d           3.895   2.307   0.860  0.00  0.00     0.217 HD
ENDBRANCH   3  14
TORSDOF 2
