REMARK  1 active torsions:
REMARK  status: ('A' for Active; 'I' for Inactive)
REMARK    1  A    between atoms: C4_4  and  C8_11 
ROOT
ATOM      1  C8  <0> d          -1.903  -1.852   0.012  0.00  0.00     0.041 C 
ATOM      2  C9  <0> d          -1.939  -2.362   1.392  0.00  0.00     0.063 C 
ATOM      3  N3  <0> d          -1.968  -2.755   2.458  0.00  0.00    -0.197 NA
ATOM      4  H6  <0> d          -2.916  -1.880  -0.416  0.00  0.00     0.062 H 
ATOM      5  H7  <0> d          -1.231  -2.479  -0.593  0.00  0.00     0.062 H 
ENDROOT
BRANCH   1   6
ATOM      6  C4  <0> d          -1.398  -0.432   0.014  0.00  0.00    -0.016 A 
ATOM      7  C3  <0> d           0.002  -0.004   0.002  0.00  0.00     0.018 A 
ATOM      8  C2  <0> d           1.227  -0.674  -0.014  0.00  0.00    -0.067 A 
ATOM      9  C6  <0> d          -0.017   1.404   0.010  0.00  0.00     0.138 A 
ATOM     10  C1  <0> d           2.383   0.084  -0.021  0.00  0.00    -0.065 A 
ATOM     11  H3  <0> d           1.270  -1.753  -0.019  0.00  0.00     0.085 H 
ATOM     12  C7  <0> d           2.289   1.467  -0.013  0.00  0.00     0.004 A 
ATOM     13  H2  <0> d           3.350  -0.396  -0.033  0.00  0.00     0.085 H 
ATOM     14  N2  <0> d           1.124   2.079   0.003  0.00  0.00    -0.242 NA
ATOM     15  H5  <0> d           3.194   2.057  -0.019  0.00  0.00     0.114 H 
ATOM     16  N1  <0> d          -1.337   1.787   0.030  0.00  0.00    -0.350 N 
ATOM     17  C5  <0> d          -2.146   0.683   0.028  0.00  0.00    -0.013 A 
ATOM     18  H1  <0> d          -1.780   2.794   0.046  0.00  0.00     0.166 HD
ATOM     19  H4  <0> d          -3.225   0.705   0.039  0.00  0.00     0.112 H 
ENDBRANCH   1   6
TORSDOF 1
