REMARK  0 active torsions:
REMARK  status: ('A' for Active; 'I' for Inactive)
ROOT
ATOM      1  C1  <0> d           1.167   2.091   0.002  0.00  0.00    -0.020 A 
ATOM      2  C2  <0> d          -0.017   1.380   0.010  0.00  0.00     0.121 A 
ATOM      3  C3  <0> d           0.002  -0.004   0.002  0.00  0.00    -0.008 A 
ATOM      4  C4  <0> d           1.213  -0.675  -0.013  0.00  0.00     0.127 A 
ATOM      5  C5  <0> d           2.401   0.035  -0.021  0.00  0.00     0.009 A 
ATOM      6  C6  <0> d           2.392   1.421  -0.013  0.00  0.00     0.040 A 
ATOM      7  N1  <0> d           3.686   1.944  -0.022  0.00  0.00    -0.389 N 
ATOM      8  C7  <0> d           4.668   0.857  -0.037  0.00  0.00    -0.004 A 
ATOM      9  C8  <0> d           3.837  -0.437  -0.036  0.00  0.00    -0.021 A 
ATOM     10  F1  <0> d           1.235  -2.026  -0.021  0.00  0.00    -0.205 F 
ATOM     11  F2  <0> d          -1.197   2.038   0.019  0.00  0.00    -0.206 F 
ATOM     12  H1  <0> d           1.146   3.171   0.008  0.00  0.00     0.091 H 
ATOM     13  H2  <0> d          -0.925  -0.558   0.008  0.00  0.00     0.093 H 
ATOM     14  H3  <0> d           3.903   2.889  -0.019  0.00  0.00     0.159 HD
ATOM     15  H4  <0> d           5.297   0.903   0.852  0.00  0.00     0.064 H 
ATOM     16  H5  <0> d           5.280   0.913  -0.937  0.00  0.00     0.064 H 
ATOM     17  H6  <0> d           4.054  -1.027   0.854  0.00  0.00     0.042 H 
ATOM     18  H7  <0> d           4.037  -1.018  -0.937  0.00  0.00     0.042 H 
ENDROOT
TORSDOF 0
