REMARK  6 active torsions:
REMARK  status: ('A' for Active; 'I' for Inactive)
REMARK    1  A    between atoms: C2_2  and  C3_3 
REMARK    2  A    between atoms: C3_3  and  O1_4 
REMARK    3  A    between atoms: O1_4  and  C4_5 
REMARK    4  A    between atoms: C4_5  and  C5_7 
REMARK    5  A    between atoms: C5_7  and  C6_8 
REMARK    6  A    between atoms: C6_8  and  C7_9 
ROOT
ATOM      1  C1  <0> d          -8.252   0.113   0.042  0.00  0.00    -0.152 C 
ATOM      2  C2  <0> d          -7.331   0.840   0.041  0.00  0.00    -0.091 C 
ATOM      3  H1  <0> d          -9.076  -0.538   0.042  0.00  0.00     0.166 H 
ENDROOT
BRANCH   2   4
ATOM      4  C3  <0> d          -6.176   1.753   0.041  0.00  0.00     0.082 C 
ATOM      5  H2  <0> d          -6.205   2.376   0.934  0.00  0.00     0.094 H 
ATOM      6  H3  <0> d          -6.213   2.386  -0.846  0.00  0.00     0.094 H 
BRANCH   4   7
ATOM      7  O1  <0> d          -4.947   0.979   0.031  0.00  0.00    -0.309 OA
BRANCH   7   8
ATOM      8  C4  <0> d          -3.794   1.665   0.029  0.00  0.00     0.260 C 
ATOM      9  O2  <0> d          -3.810   2.874   0.036  0.00  0.00    -0.265 OA
BRANCH   8  10
ATOM     10  C5  <0> d          -2.479   0.930   0.019  0.00  0.00     0.025 C 
ATOM     11  H4  <0> d          -2.417   0.309  -0.875  0.00  0.00     0.048 H 
ATOM     12  H5  <0> d          -2.408   0.299   0.905  0.00  0.00     0.048 H 
BRANCH  10  13
ATOM     13  C6  <0> d          -1.329   1.940   0.019  0.00  0.00     0.024 C 
ATOM     14  H6  <0> d          -1.391   2.561   0.913  0.00  0.00     0.049 H 
ATOM     15  H7  <0> d          -1.400   2.570  -0.867  0.00  0.00     0.049 H 
BRANCH  13  16
ATOM     16  C7  <0> d          -0.014   1.204   0.009  0.00  0.00     0.172 C 
ATOM     17  O3  <0> d           0.002  -0.004   0.002  0.00  0.00    -0.648 OA
ATOM     18  O4  <0> d           1.139   1.891   0.001  0.00  0.00    -0.648 OA
ENDBRANCH  13  16
ENDBRANCH  10  13
ENDBRANCH   8  10
ENDBRANCH   7   8
ENDBRANCH   4   7
ENDBRANCH   2   4
TORSDOF 6
