REMARK  1 active torsions:
REMARK  status: ('A' for Active; 'I' for Inactive)
REMARK    1  A    between atoms: C1_1  and  C2_2 
ROOT
ATOM      1  C2  <0> d           2.432   3.906   0.002  0.00  0.00     0.035 C 
ATOM      2  N1  <0> d           3.508   3.300  -0.374  0.00  0.00    -0.293 NA
ATOM      3  C3  <0> d           3.504   1.909  -0.816  0.00  0.00     0.019 C 
ATOM      4  C4  <0> d           2.501   1.078  -0.017  0.00  0.00    -0.024 C 
ATOM      5  C5  <0> d           1.169   1.781   0.001  0.00  0.00    -0.044 A 
ATOM      6  C6  <0> d           1.147   3.180   0.008  0.00  0.00    -0.006 A 
ATOM      7  C7  <0> d          -0.069   3.856   0.023  0.00  0.00    -0.071 A 
ATOM      8  C8  <0> d          -1.248   3.137   0.030  0.00  0.00    -0.082 A 
ATOM      9  C9  <0> d          -1.221   1.754   0.017  0.00  0.00    -0.082 A 
ATOM     10  C10 <0> d          -0.013   1.076   0.008  0.00  0.00    -0.076 A 
ATOM     11  H4  <0> d           3.239   1.871  -1.872  0.00  0.00     0.067 H 
ATOM     12  H5  <0> d           4.501   1.489  -0.682  0.00  0.00     0.067 H 
ATOM     13  H6  <0> d           2.861   0.957   1.004  0.00  0.00     0.042 H 
ATOM     14  H7  <0> d           2.388   0.099  -0.482  0.00  0.00     0.042 H 
ATOM     15  H8  <0> d          -0.091   4.936   0.028  0.00  0.00     0.084 H 
ATOM     16  H9  <0> d          -2.195   3.656   0.041  0.00  0.00     0.083 H 
ATOM     17  H10 <0> d          -2.147   1.199   0.019  0.00  0.00     0.083 H 
ATOM     18  H11 <0> d           0.002  -0.004   0.002  0.00  0.00     0.084 H 
ENDROOT
BRANCH   1  19
ATOM     19  C1  <0> d           2.487   5.349   0.433  0.00  0.00    -0.035 C 
ATOM     20  H1  <0> d           2.657   5.396   1.417  0.00  0.00     0.035 H 
ATOM     21  H2  <0> d           3.292   5.857  -0.100  0.00  0.00     0.035 H 
ATOM     22  H3  <0> d           1.538   5.833   0.205  0.00  0.00     0.035 H 
ENDBRANCH   1  19
TORSDOF 1
