REMARK  3 active torsions:
REMARK  status: ('A' for Active; 'I' for Inactive)
REMARK    1  A    between atoms: C1_1  and  C2_2 
REMARK    2  A    between atoms: C2_2  and  C3_3 
REMARK    3  A    between atoms: C2_2  and  C4_4 
ROOT
ATOM      1  C4  <0> d          -0.013   1.086   0.008  0.00  0.00     0.038 A 
ATOM      2  H1  <0> d           0.002  -0.004   0.002  0.00  0.00     0.076 H 
ATOM      3  C5  <0> d          -0.789   1.610   1.232  0.00  0.00     0.050 A 
ATOM      4  O1  <0> d          -1.899   2.355   0.653  0.00  0.00    -0.302 OA
ATOM      5  C6  <0> d          -1.824   2.302  -0.682  0.00  0.00     0.361 A 
ATOM      6  O2  <0> d          -2.630   2.843  -1.413  0.00  0.00    -0.239 OA
ATOM      7  N1  <0> d          -0.775   1.599  -1.140  0.00  0.00    -0.330 N 
ATOM      8  H9  <0> d          -1.158   0.780   1.834  0.00  0.00     0.078 H 
ATOM      9  H10 <0> d          -0.159   2.267   1.831  0.00  0.00     0.078 H 
ATOM     10  H11 <0> d          -0.557   1.452  -2.074  0.00  0.00     0.165 HD
ENDROOT
BRANCH   1  11
ATOM     11  C2  <0> d           1.413   1.641  -0.003  0.00  0.00    -0.039 C 
ATOM     12  H5  <0> d           1.942   1.300   0.887  0.00  0.00     0.042 H 
BRANCH  11  13
ATOM     13  C1  <0> d           2.143   1.147  -1.253  0.00  0.00    -0.071 C 
ATOM     14  H2  <0> d           2.178   0.057  -1.246  0.00  0.00     0.028 H 
ATOM     15  H3  <0> d           1.614   1.488  -2.142  0.00  0.00     0.028 H 
ATOM     16  H4  <0> d           3.159   1.542  -1.260  0.00  0.00     0.028 H 
ENDBRANCH  11  13
BRANCH  11  17
ATOM     17  C3  <0> d           1.364   3.170  -0.012  0.00  0.00    -0.071 C 
ATOM     18  H6  <0> d           0.844   3.523   0.879  0.00  0.00     0.028 H 
ATOM     19  H7  <0> d           2.380   3.566  -0.019  0.00  0.00     0.028 H 
ATOM     20  H8  <0> d           0.835   3.512  -0.901  0.00  0.00     0.028 H 
ENDBRANCH  11  17
ENDBRANCH   1  11
TORSDOF 3
