REMARK  4 active torsions:
REMARK  status: ('A' for Active; 'I' for Inactive)
REMARK    1  A    between atoms: C1_1  and  C2_2 
REMARK    2  A    between atoms: C2_2  and  C3_4 
REMARK    3  A    between atoms: C6_9  and  C8_11 
REMARK    4  A    between atoms: C6_9  and  C9_12 
ROOT
ATOM      1  C3  <0> d           2.171   1.393   1.211  0.00  0.00     0.008 C 
ATOM      2  H1  <0> d           1.743   1.722   2.053  0.00  0.00     0.051 H 
ATOM      3  C4  <0> d           2.114  -0.137   1.170  0.00  0.00    -0.035 C 
ATOM      4  C5  <0> d           0.650  -0.585   1.135  0.00  0.00     0.021 C 
ATOM      5  O2  <0> d           0.002  -0.004   0.002  0.00  0.00    -0.381 OA
ATOM      6  C6  <0> d          -0.017   1.425   0.010  0.00  0.00     0.054 C 
ATOM      7  C7  <0> d           1.419   1.953  -0.001  0.00  0.00    -0.027 C 
ATOM      8  H5  <0> d           2.598  -0.544   2.058  0.00  0.00     0.037 H 
ATOM      9  H6  <0> d           2.626  -0.498   0.278  0.00  0.00     0.037 H 
ATOM     10  H7  <0> d           0.149  -0.260   2.047  0.00  0.00     0.074 H 
ATOM     11  H8  <0> d           0.604  -1.672   1.063  0.00  0.00     0.074 H 
ATOM     12  H9  <0> d           1.917   1.636  -0.917  0.00  0.00     0.038 H 
ATOM     13  H10 <0> d           1.407   3.042   0.050  0.00  0.00     0.038 H 
ENDROOT
BRANCH   6  14
ATOM     14  C8  <0> d          -0.757   1.932  -1.230  0.00  0.00    -0.048 C 
ATOM     15  H11 <0> d          -1.780   1.555  -1.222  0.00  0.00     0.031 H 
ATOM     16  H12 <0> d          -0.772   3.022  -1.224  0.00  0.00     0.031 H 
ATOM     17  H13 <0> d          -0.246   1.581  -2.127  0.00  0.00     0.031 H 
ENDBRANCH   6  14
BRANCH   6  18
ATOM     18  C9  <0> d          -0.733   1.919   1.269  0.00  0.00    -0.048 C 
ATOM     19  H14 <0> d          -0.206   1.558   2.152  0.00  0.00     0.031 H 
ATOM     20  H15 <0> d          -0.748   3.008   1.275  0.00  0.00     0.031 H 
ATOM     21  H16 <0> d          -1.756   1.541   1.277  0.00  0.00     0.031 H 
ENDBRANCH   6  18
BRANCH   1  22
ATOM     22  C2  <0> d           3.607   1.845   1.167  0.00  0.00     0.127 C 
ATOM     23  O1  <0> d           4.115   2.143   0.112  0.00  0.00    -0.298 OA
BRANCH  22  24
ATOM     24  C1  <0> d           4.411   1.927   2.439  0.00  0.00    -0.021 C 
ATOM     25  H2  <0> d           3.841   1.647   3.212  0.00  0.00     0.037 H 
ATOM     26  H3  <0> d           5.274   1.265   2.366  0.00  0.00     0.037 H 
ATOM     27  H4  <0> d           4.750   2.951   2.589  0.00  0.00     0.037 H 
ENDBRANCH  22  24
ENDBRANCH   1  22
TORSDOF 4
