REMARK  2 active torsions:
REMARK  status: ('A' for Active; 'I' for Inactive)
REMARK    1  A    between atoms: N1_3  and  C4_6 
REMARK    2  A    between atoms: C4_6  and  C5_7 
REMARK       I    between atoms: C5_7  and  N3_9 
ROOT
ATOM      1  C1  <0> d          -3.996  -0.393  -0.632  0.00  0.00     0.018 A 
ATOM      2  C2  <0> d          -3.049   0.451  -1.083  0.00  0.00    -0.002 A 
ATOM      3  N1  <0> d          -2.430   0.977   0.019  0.00  0.00    -0.341 N 
ATOM      4  C3  <0> d          -3.027   0.443   1.106  0.00  0.00     0.066 A 
ATOM      5  N2  <0> d          -3.963  -0.376   0.709  0.00  0.00    -0.255 NA
ATOM      6  H1  <0> d          -4.668  -0.978  -1.242  0.00  0.00     0.117 H 
ATOM      7  H2  <0> d          -2.820   0.669  -2.115  0.00  0.00     0.113 H 
ATOM      8  H3  <0> d          -2.772   0.657   2.133  0.00  0.00     0.143 H 
ENDROOT
BRANCH   3   9
ATOM      9  C4  <0> d          -1.330   1.944   0.019  0.00  0.00     0.073 C 
ATOM     10  H4  <0> d          -1.392   2.565   0.913  0.00  0.00     0.079 H 
ATOM     11  H5  <0> d          -1.400   2.575  -0.867  0.00  0.00     0.079 H 
BRANCH   9  12
ATOM     12  C5  <0> d          -0.014   1.209   0.009  0.00  0.00     0.233 C 
ATOM     13  O1  <0> d           0.002  -0.004   0.002  0.00  0.00    -0.272 OA
ATOM     14  N3  <0> d           1.143   1.898   0.001  0.00  0.00    -0.369 N 
ATOM     15  H6  <0> d           1.990   1.425  -0.009  0.00  0.00     0.159 HD
ATOM     16  H7  <0> d           1.130   2.868   0.007  0.00  0.00     0.159 HD
ENDBRANCH   9  12
ENDBRANCH   3   9
TORSDOF 2
