REMARK  1 active torsions:
REMARK  status: ('A' for Active; 'I' for Inactive)
REMARK    1  A    between atoms: C1_1  and  C2_2 
ROOT
ATOM      1  C2  <0> d           0.002  -0.004   0.002  0.00  0.00    -0.027 A 
ATOM      2  C3  <0> d           1.295  -0.372  -0.012  0.00  0.00    -0.015 A 
ATOM      3  N1  <0> d           2.091   0.743  -0.014  0.00  0.00    -0.351 N 
ATOM      4  H1  <0> d           3.186   0.637  -0.025  0.00  0.00     0.166 HD
ATOM      5  C4  <0> d           1.321   1.868  -0.001  0.00  0.00     0.122 A 
ATOM      6  C5  <0> d          -0.018   1.456   0.010  0.00  0.00     0.085 A 
ATOM      7  C6  <0> d          -1.036   2.438   0.030  0.00  0.00     0.282 A 
ATOM      8  O1  <0> d          -2.212   2.121   0.045  0.00  0.00    -0.265 OA
ATOM      9  N2  <0> d          -0.665   3.739   0.029  0.00  0.00    -0.205 NA
ATOM     10  C7  <0> d           0.650   4.075   0.018  0.00  0.00     0.069 A 
ATOM     11  N3  <0> d           1.599   3.182   0.004  0.00  0.00    -0.336 N 
ATOM     12  H5  <0> d           1.652  -1.391  -0.021  0.00  0.00     0.112 H 
ATOM     13  H6  <0> d           0.920   5.121   0.022  0.00  0.00     0.143 H 
ATOM     14  H7  <0> d           2.645   3.523  -0.004  0.00  0.00     0.168 HD
ENDROOT
BRANCH   1  15
ATOM     15  C1  <0> d          -1.194  -0.920   0.008  0.00  0.00    -0.049 C 
ATOM     16  H2  <0> d          -0.855  -1.967  -0.001  0.00  0.00     0.033 H 
ATOM     17  H3  <0> d          -1.809  -0.727  -0.883  0.00  0.00     0.033 H 
ATOM     18  H4  <0> d          -1.792  -0.737   0.913  0.00  0.00     0.033 H 
ENDBRANCH   1  15
TORSDOF 1
