REMARK  0 active torsions:
REMARK  status: ('A' for Active; 'I' for Inactive)
ROOT
ATOM      1  C1  <0> d           1.180   2.156   0.002  0.00  0.00    -0.057 A 
ATOM      2  C2  <0> d           1.108   3.536   0.011  0.00  0.00    -0.025 A 
ATOM      3  C3  <0> d          -0.136   4.151   0.026  0.00  0.00     0.209 A 
ATOM      4  N1  <0> d          -1.248   3.437   0.032  0.00  0.00    -0.231 NA
ATOM      5  C4  <0> d          -1.229   2.121   0.019  0.00  0.00     0.025 A 
ATOM      6  C5  <0> d          -0.017   1.428   0.010  0.00  0.00     0.062 A 
ATOM      7  C6  <0> d           0.002  -0.004   0.002  0.00  0.00     0.101 C 
ATOM      8  N2  <0> d           0.018  -1.140  -0.004  0.00  0.00    -0.191 NA
ATOM      9  F1  <0> d          -0.211   5.500   0.034  0.00  0.00    -0.184 F 
ATOM     10  H1  <0> d           2.135   1.652  -0.010  0.00  0.00     0.086 H 
ATOM     11  H2  <0> d           2.010   4.130   0.005  0.00  0.00     0.090 H 
ATOM     12  H3  <0> d          -2.159   1.572   0.020  0.00  0.00     0.117 H 
ENDROOT
TORSDOF 0
