REMARK  5 active torsions:
REMARK  status: ('A' for Active; 'I' for Inactive)
REMARK    1  A    between atoms: C1_1  and  C2_2 
REMARK    2  A    between atoms: C2_2  and  C3_3 
REMARK    3  A    between atoms: C4_4  and  C7_8 
REMARK    4  A    between atoms: C5_5  and  C6_6 
REMARK    5  A    between atoms: C7_8  and  C8_9 
ROOT
ATOM      1  C3  <0> d          -1.166   1.784   0.682  0.00  0.00    -0.058 A 
ATOM      2  C4  <0> d          -1.179   1.791  -0.636  0.00  0.00    -0.058 A 
ATOM      3  C5  <0> d          -0.013   1.086   0.008  0.00  0.00     0.074 A 
ATOM      4  H6  <0> d           0.002  -0.004   0.002  0.00  0.00     0.070 H 
ENDROOT
BRANCH   1   5
ATOM      5  C2  <0> d          -1.835   2.190   1.969  0.00  0.00    -0.046 C 
ATOM      6  H4  <0> d          -1.076   2.422   2.716  0.00  0.00     0.039 H 
ATOM      7  H5  <0> d          -2.454   3.071   1.795  0.00  0.00     0.039 H 
BRANCH   5   8
ATOM      8  C1  <0> d          -2.713   1.043   2.473  0.00  0.00    -0.073 C 
ATOM      9  H1  <0> d          -3.472   0.811   1.726  0.00  0.00     0.028 H 
ATOM     10  H2  <0> d          -2.094   0.162   2.647  0.00  0.00     0.028 H 
ATOM     11  H3  <0> d          -3.197   1.337   3.404  0.00  0.00     0.028 H 
ENDBRANCH   5   8
ENDBRANCH   1   5
BRANCH   3  12
ATOM     12  C6  <0> d           1.331   1.767  -0.001  0.00  0.00     0.185 C 
ATOM     13  O1  <0> d           1.474   2.814  -0.588  0.00  0.00    -0.647 OA
ATOM     14  O2  <0> d           2.370   1.212   0.643  0.00  0.00    -0.647 OA
ENDBRANCH   3  12
BRANCH   2  15
ATOM     15  C7  <0> d          -1.872   2.211  -1.906  0.00  0.00    -0.046 C 
ATOM     16  H7  <0> d          -1.737   1.442  -2.666  0.00  0.00     0.039 H 
ATOM     17  H8  <0> d          -2.936   2.346  -1.711  0.00  0.00     0.039 H 
BRANCH  15  18
ATOM     18  C8  <0> d          -1.274   3.529  -2.402  0.00  0.00    -0.073 C 
ATOM     19  H9  <0> d          -0.210   3.394  -2.597  0.00  0.00     0.028 H 
ATOM     20  H10 <0> d          -1.775   3.833  -3.321  0.00  0.00     0.028 H 
ATOM     21  H11 <0> d          -1.409   4.298  -1.642  0.00  0.00     0.028 H 
ENDBRANCH  15  18
ENDBRANCH   2  15
TORSDOF 5
