REMARK  1 active torsions:
REMARK  status: ('A' for Active; 'I' for Inactive)
REMARK    1  A    between atoms: C2_2  and  N2_9 
ROOT
ATOM      1  C1  <0> d          -0.013   1.076   0.008  0.00  0.00    -0.028 A 
ATOM      2  C2  <0> d           1.168   1.790   0.001  0.00  0.00     0.056 A 
ATOM      3  C3  <0> d           1.060   3.180   0.009  0.00  0.00     0.113 A 
ATOM      4  S1  <0> d          -0.709   3.411   0.027  0.00  0.00    -0.065 SA
ATOM      5  C4  <0> d          -1.192   1.747   0.017  0.00  0.00     0.078 A 
ATOM      6 Cl1  <0> d          -2.801   1.094   0.020  0.00  0.00    -0.076 Cl
ATOM      7  C5  <0> d           2.099   4.166   0.004  0.00  0.00     0.109 C 
ATOM      8  N1  <0> d           2.923   4.948   0.000  0.00  0.00    -0.191 NA
ATOM      9  H1  <0> d           0.002  -0.004   0.002  0.00  0.00     0.090 H 
ENDROOT
BRANCH   2  10
ATOM     10  N2  <0> d           2.408   1.153  -0.014  0.00  0.00    -0.397 N 
ATOM     11  H2  <0> d           2.456   0.184  -0.020  0.00  0.00     0.156 HD
ATOM     12  H3  <0> d           3.224   1.679  -0.019  0.00  0.00     0.156 HD
ENDBRANCH   2  10
TORSDOF 1
