REMARK  4 active torsions:
REMARK  status: ('A' for Active; 'I' for Inactive)
REMARK    1  A    between atoms: C2_2  and  C5_9 
REMARK    2  A    between atoms: N3_5  and  C3_6 
REMARK    3  A    between atoms: C3_6  and  C4_7 
REMARK    4  A    between atoms: C4_7  and  O1_8 
ROOT
ATOM      1  C1  <0> d          -0.016   1.343   0.009  0.00  0.00     0.036 A 
ATOM      2  C2  <0> d           1.298   1.756  -0.001  0.00  0.00     0.174 A 
ATOM      3  N1  <0> d           2.083   0.663  -0.014  0.00  0.00    -0.124 NA
ATOM      4  N2  <0> d           1.348  -0.394  -0.013  0.00  0.00    -0.066 NA
ATOM      5  N3  <0> d           0.002  -0.004   0.002  0.00  0.00    -0.258 N 
ATOM      6  H1  <0> d          -0.891   1.976   0.025  0.00  0.00     0.118 H 
ENDROOT
BRANCH   5   7
ATOM      7  C3  <0> d          -1.163  -0.892   0.008  0.00  0.00     0.037 C 
ATOM      8  H2  <0> d          -1.180  -1.463   0.937  0.00  0.00     0.070 H 
ATOM      9  H3  <0> d          -2.073  -0.298  -0.069  0.00  0.00     0.070 H 
BRANCH   7  10
ATOM     10  C4  <0> d          -1.079  -1.853  -1.179  0.00  0.00     0.033 C 
ATOM     11  H4  <0> d          -1.062  -1.282  -2.108  0.00  0.00     0.076 H 
ATOM     12  H5  <0> d          -0.168  -2.447  -1.102  0.00  0.00     0.076 H 
BRANCH  10  13
ATOM     13  O1  <0> d          -2.215  -2.719  -1.173  0.00  0.00    -0.399 OA
ATOM     14  H6  <0> d          -2.228  -3.357  -1.900  0.00  0.00     0.209 HD
ENDBRANCH  10  13
ENDBRANCH   7  10
ENDBRANCH   5   7
BRANCH   2  15
ATOM     15  C5  <0> d           1.764   3.152   0.002  0.00  0.00     0.232 C 
ATOM     16  O2  <0> d           0.952   4.067   0.014  0.00  0.00    -0.643 OA
ATOM     17  O3  <0> d           2.962   3.397  -0.008  0.00  0.00    -0.643 OA
ENDBRANCH   2  15
TORSDOF 4
