REMARK  0 active torsions:
REMARK  status: ('A' for Active; 'I' for Inactive)
ROOT
ATOM      1  C1  <0> d          -0.019   1.530   0.011  0.00  0.00    -0.057 C 
ATOM      2  C2  <0> d           1.423   2.050  -0.001  0.00  0.00    -0.049 C 
ATOM      3  C3  <0> d           2.051   1.779  -1.372  0.00  0.00     0.006 C 
ATOM      4  N1  <0> d           1.864   0.361  -1.702  0.00  0.00    -0.285 N 
ATOM      5  C4  <0> d           0.918  -0.453  -1.113  0.00  0.00     0.130 A 
ATOM      6  N2  <0> d           0.982  -1.622  -1.652  0.00  0.00    -0.157 NA
ATOM      7  N3  <0> d           2.002  -1.603  -2.615  0.00  0.00    -0.227 N 
ATOM      8  H1  <0> d           2.271  -2.343  -3.182  0.00  0.00     0.194 HD
ATOM      9  C5  <0> d           2.540  -0.364  -2.608  0.00  0.00     0.344 A 
ATOM     10  O1  <0> d           3.468   0.024  -3.295  0.00  0.00    -0.245 OA
ATOM     11  C6  <0> d           0.002  -0.004   0.002  0.00  0.00    -0.008 C 
ATOM     12  H2  <0> d          -0.527   1.883   0.908  0.00  0.00     0.033 H 
ATOM     13  H3  <0> d          -0.544   1.893  -0.873  0.00  0.00     0.033 H 
ATOM     14  H4  <0> d           1.424   3.122   0.194  0.00  0.00     0.035 H 
ATOM     15  H5  <0> d           1.999   1.539   0.771  0.00  0.00     0.035 H 
ATOM     16  H6  <0> d           1.564   2.397  -2.126  0.00  0.00     0.065 H 
ATOM     17  H7  <0> d           3.116   2.009  -1.339  0.00  0.00     0.065 H 
ATOM     18  H8  <0> d           0.376  -0.373   0.957  0.00  0.00     0.044 H 
ATOM     19  H9  <0> d          -1.004  -0.385  -0.172  0.00  0.00     0.044 H 
ENDROOT
TORSDOF 0
