REMARK  2 active torsions:
REMARK  status: ('A' for Active; 'I' for Inactive)
REMARK    1  A    between atoms: C1_1  and  C2_2 
REMARK    2  A    between atoms: C6_6  and  N2_8 
ROOT
ATOM      1  C2  <0> d          -2.365   3.652   0.033  0.00  0.00     0.071 A 
ATOM      2  C3  <0> d          -3.586   3.003   0.035  0.00  0.00     0.140 A 
ATOM      3  C4  <0> d          -3.617   1.614   0.028  0.00  0.00    -0.040 A 
ATOM      4  C5  <0> d          -2.416   0.927   0.018  0.00  0.00    -0.036 A 
ATOM      5  C6  <0> d          -1.225   1.645   0.017  0.00  0.00     0.121 A 
ATOM      6  N1  <0> d          -1.236   2.969   0.029  0.00  0.00    -0.234 NA
ATOM      7  F1  <0> d          -4.736   3.712   0.045  0.00  0.00    -0.204 F 
ATOM      8  H4  <0> d          -4.557   1.083   0.029  0.00  0.00     0.088 H 
ATOM      9  H5  <0> d          -2.404  -0.153   0.013  0.00  0.00     0.089 H 
ENDROOT
BRANCH   1  10
ATOM     10  C1  <0> d          -2.323   5.159   0.041  0.00  0.00    -0.033 C 
ATOM     11  H1  <0> d          -3.349   5.554   0.043  0.00  0.00     0.035 H 
ATOM     12  H2  <0> d          -1.794   5.515  -0.856  0.00  0.00     0.035 H 
ATOM     13  H3  <0> d          -1.794   5.506   0.940  0.00  0.00     0.035 H 
ENDBRANCH   1  10
BRANCH   5  14
ATOM     14  N2  <0> d          -0.011   0.966   0.007  0.00  0.00    -0.384 N 
ATOM     15  H6  <0> d           0.934   1.529   0.006  0.00  0.00     0.157 HD
ATOM     16  H7  <0> d           0.004  -0.134   0.001  0.00  0.00     0.157 HD
ENDBRANCH   5  14
TORSDOF 2
