REMARK  5 active torsions:
REMARK  status: ('A' for Active; 'I' for Inactive)
REMARK    1  A    between atoms: C4_4  and  C7_7 
REMARK    2  A    between atoms: C7_7  and  C8_8 
REMARK    3  A    between atoms: C8_8  and  C9_9 
REMARK    4  A    between atoms: C9_9  and  C10_10 
REMARK    5  A    between atoms: C10_10  and  O1_11 
ROOT
ATOM      1  C1  <0> d          -0.739   1.585   1.264  0.00  0.00    -0.062 C 
ATOM      2  C2  <0> d          -0.013   1.086   0.008  0.00  0.00    -0.061 C 
ATOM      3  C3  <0> d          -0.761   1.597  -1.225  0.00  0.00    -0.045 C 
ATOM      4  C4  <0> d          -1.020   3.070  -1.099  0.00  0.00    -0.084 C 
ATOM      5  C5  <0> d          -0.952   3.725   0.015  0.00  0.00    -0.101 C 
ATOM      6  C6  <0> d          -0.595   3.106   1.335  0.00  0.00    -0.050 C 
ATOM      7  H1  <0> d          -0.293   1.132   2.161  0.00  0.00     0.033 H 
ATOM      8  H2  <0> d          -1.805   1.319   1.211  0.00  0.00     0.033 H 
ATOM      9  H3  <0> d           1.019   1.468   0.005  0.00  0.00     0.033 H 
ATOM     10  H4  <0> d           0.004  -0.014   0.007  0.00  0.00     0.033 H 
ATOM     11  H5  <0> d          -0.155   1.413  -2.124  0.00  0.00     0.039 H 
ATOM     12  H6  <0> d          -1.722   1.068  -1.316  0.00  0.00     0.039 H 
ATOM     13  H7  <0> d          -1.163   4.805   0.032  0.00  0.00     0.077 H 
ATOM     14  H8  <0> d          -1.267   3.502   2.111  0.00  0.00     0.038 H 
ATOM     15  H9  <0> d           0.445   3.364   1.583  0.00  0.00     0.038 H 
ENDROOT
BRANCH   4  16
ATOM     16  C7  <0> d          -1.382   3.833  -2.347  0.00  0.00    -0.045 C 
ATOM     17  H10 <0> d          -1.988   3.193  -3.005  0.00  0.00     0.039 H 
ATOM     18  H11 <0> d          -1.959   4.729  -2.074  0.00  0.00     0.039 H 
BRANCH  16  19
ATOM     19  C8  <0> d          -0.104   4.251  -3.077  0.00  0.00    -0.060 C 
ATOM     20  H12 <0> d           0.502   4.891  -2.419  0.00  0.00     0.033 H 
ATOM     21  H13 <0> d           0.472   3.355  -3.350  0.00  0.00     0.033 H 
BRANCH  19  22
ATOM     22  C9  <0> d          -0.471   5.026  -4.344  0.00  0.00    -0.045 C 
ATOM     23  H14 <0> d          -1.078   4.386  -5.002  0.00  0.00     0.036 H 
ATOM     24  H15 <0> d          -1.048   5.922  -4.072  0.00  0.00     0.036 H 
BRANCH  22  25
ATOM     25  C10 <0> d           0.806   5.444  -5.075  0.00  0.00     0.017 C 
ATOM     26  H16 <0> d           1.412   6.084  -4.416  0.00  0.00     0.073 H 
ATOM     27  H17 <0> d           1.383   4.548  -5.347  0.00  0.00     0.073 H 
BRANCH  25  28
ATOM     28  O1  <0> d           0.463   6.168  -6.258  0.00  0.00    -0.401 OA
ATOM     29  H18 <0> d           1.256   6.552  -6.917  0.00  0.00     0.209 HD
ENDBRANCH  25  28
ENDBRANCH  22  25
ENDBRANCH  19  22
ENDBRANCH  16  19
ENDBRANCH   4  16
TORSDOF 5
