REMARK  0 active torsions:
REMARK  status: ('A' for Active; 'I' for Inactive)
ROOT
ATOM      1  C1  <0> d           2.018   1.925   1.401  0.00  0.00    -0.065 C 
ATOM      2  C2  <0> d           1.430   2.042  -0.001  0.00  0.00    -0.065 C 
ATOM      3  C3  <0> d          -0.018   1.516   0.010  0.00  0.00    -0.059 C 
ATOM      4  C4  <0> d           0.002  -0.004   0.002  0.00  0.00    -0.010 C 
ATOM      5  C5  <0> d           0.448  -0.501   1.357  0.00  0.00     0.127 C 
ATOM      6  O1  <0> d          -0.263  -0.362   2.324  0.00  0.00    -0.298 OA
ATOM      7  C6  <0> d           1.780  -1.168   1.487  0.00  0.00    -0.010 C 
ATOM      8  C7  <0> d           2.792  -0.356   0.664  0.00  0.00    -0.059 C 
ATOM      9  C8  <0> d           3.174   0.907   1.433  0.00  0.00    -0.065 C 
ATOM     10  H1  <0> d           1.238   1.602   2.091  0.00  0.00     0.033 H 
ATOM     11  H2  <0> d           2.391   2.900   1.715  0.00  0.00     0.033 H 
ATOM     12  H3  <0> d           2.026   1.451  -0.696  0.00  0.00     0.033 H 
ATOM     13  H4  <0> d           1.436   3.087  -0.311  0.00  0.00     0.033 H 
ATOM     14  H5  <0> d          -0.544   1.878  -0.873  0.00  0.00     0.033 H 
ATOM     15  H6  <0> d          -0.527   1.869   0.908  0.00  0.00     0.033 H 
ATOM     16  H7  <0> d          -0.915  -0.349  -0.198  0.00  0.00     0.044 H 
ATOM     17  H8  <0> d           0.696  -0.355  -0.762  0.00  0.00     0.044 H 
ATOM     18  H9  <0> d           2.049  -1.191   2.450  0.00  0.00     0.044 H 
ATOM     19  H10 <0> d           1.722  -2.186   1.101  0.00  0.00     0.044 H 
ATOM     20  H11 <0> d           3.684  -0.958   0.489  0.00  0.00     0.033 H 
ATOM     21  H12 <0> d           2.346  -0.079  -0.291  0.00  0.00     0.033 H 
ATOM     22  H13 <0> d           3.396   0.646   2.467  0.00  0.00     0.033 H 
ATOM     23  H14 <0> d           4.059   1.352   0.978  0.00  0.00     0.033 H 
ENDROOT
TORSDOF 0
