REMARK  4 active torsions:
REMARK  status: ('A' for Active; 'I' for Inactive)
REMARK    1  A    between atoms: C3_3  and  C5_7 
REMARK    2  A    between atoms: C5_7  and  O2_8 
REMARK    3  A    between atoms: O2_8  and  C6_9 
REMARK    4  A    between atoms: C6_9  and  C7_10 
ROOT
ATOM      1  C7  <0> d           0.002  -0.004   0.002  0.00  0.00     0.034 C 
ATOM      2  C8  <0> d          -1.379  -0.514   0.013  0.00  0.00     0.061 C 
ATOM      3  N1  <0> d          -2.445  -0.907   0.021  0.00  0.00    -0.197 NA
ATOM      4  H12 <0> d           0.512  -0.356  -0.895  0.00  0.00     0.058 H 
ATOM      5  H13 <0> d           0.529  -0.365   0.885  0.00  0.00     0.058 H 
ENDROOT
BRANCH   1   6
ATOM      6  C6  <0> d          -0.019   1.526   0.010  0.00  0.00     0.031 C 
ATOM      7  H10 <0> d          -0.546   1.887  -0.873  0.00  0.00     0.075 H 
ATOM      8  H11 <0> d          -0.529   1.877   0.907  0.00  0.00     0.075 H 
BRANCH   6   9
ATOM      9  O2  <0> d           1.322   2.020   0.000  0.00  0.00    -0.388 OA
BRANCH   9  10
ATOM     10  C5  <0> d           1.415   3.446   0.007  0.00  0.00     0.043 C 
ATOM     11  H8  <0> d           0.918   3.847  -0.876  0.00  0.00     0.078 H 
ATOM     12  H9  <0> d           0.935   3.838   0.904  0.00  0.00     0.078 H 
BRANCH  10  13
ATOM     13  C3  <0> d           2.888   3.861  -0.005  0.00  0.00     0.059 C 
ATOM     14  C2  <0> d           3.000   5.394  -0.116  0.00  0.00    -0.037 C 
ATOM     15  C1  <0> d           3.792   5.809   1.147  0.00  0.00    -0.043 C 
ATOM     16  H4  <0> d           3.546   5.672  -1.018  0.00  0.00     0.036 H 
ATOM     17  H5  <0> d           2.010   5.850  -0.113  0.00  0.00     0.036 H 
ATOM     18  C4  <0> d           4.499   4.486   1.537  0.00  0.00     0.020 C 
ATOM     19  H2  <0> d           4.521   6.585   0.912  0.00  0.00     0.036 H 
ATOM     20  H3  <0> d           3.119   6.138   1.938  0.00  0.00     0.036 H 
ATOM     21  O1  <0> d           3.515   3.472   1.229  0.00  0.00    -0.384 OA
ATOM     22  H6  <0> d           5.398   4.340   0.939  0.00  0.00     0.074 H 
ATOM     23  H7  <0> d           4.741   4.479   2.600  0.00  0.00     0.074 H 
ATOM     24  H1  <0> d           3.399   3.390  -0.845  0.00  0.00     0.086 H 
ENDBRANCH  10  13
ENDBRANCH   9  10
ENDBRANCH   6   9
ENDBRANCH   1   6
TORSDOF 4
