REMARK  2 active torsions:
REMARK  status: ('A' for Active; 'I' for Inactive)
REMARK    1  A    between atoms: C1_1  and  C2_2 
REMARK    2  A    between atoms: C2_2  and  C3_3 
ROOT
ATOM      1  C3  <0> d           1.220   1.822   0.000  0.00  0.00     0.055 A 
ATOM      2  N1  <0> d          -0.017   1.397   0.010  0.00  0.00    -0.180 NA
ATOM      3  N2  <0> d           0.002  -0.004   0.002  0.00  0.00    -0.289 N 
ATOM      4  H1  <0> d          -0.798  -0.603   0.006  0.00  0.00     0.188 HD
ATOM      5  C4  <0> d           1.292  -0.402  -0.012  0.00  0.00    -0.002 A 
ATOM      6  C5  <0> d           2.066   0.708  -0.014  0.00  0.00    -0.041 A 
ATOM      7  H7  <0> d           1.643  -1.423  -0.021  0.00  0.00     0.113 H 
ATOM      8  H8  <0> d           3.145   0.730  -0.024  0.00  0.00     0.088 H 
ENDROOT
BRANCH   1   9
ATOM      9  C2  <0> d           1.659   3.264   0.004  0.00  0.00    -0.026 C 
ATOM     10  H5  <0> d           1.358   3.733   0.941  0.00  0.00     0.041 H 
ATOM     11  H6  <0> d           2.743   3.314  -0.096  0.00  0.00     0.041 H 
BRANCH   9  12
ATOM     12  C1  <0> d           1.004   3.999  -1.167  0.00  0.00    -0.071 C 
ATOM     13  H2  <0> d           1.304   3.530  -2.104  0.00  0.00     0.028 H 
ATOM     14  H3  <0> d          -0.080   3.949  -1.067  0.00  0.00     0.028 H 
ATOM     15  H4  <0> d           1.321   5.042  -1.165  0.00  0.00     0.028 H 
ENDBRANCH   9  12
ENDBRANCH   1   9
TORSDOF 2
