REMARK  1 active torsions:
REMARK  status: ('A' for Active; 'I' for Inactive)
REMARK    1  A    between atoms: C1_1  and  C2_2 
ROOT
ATOM      1  C2  <0> d           0.002  -0.004   0.002  0.00  0.00    -0.057 C 
ATOM      2  C3  <0> d          -0.019   1.525   0.010  0.00  0.00    -0.056 C 
ATOM      3  C4  <0> d           1.419   2.054  -0.001  0.00  0.00    -0.009 C 
ATOM      4  C5  <0> d           2.168   1.435   1.159  0.00  0.00     0.127 C 
ATOM      5  O1  <0> d           2.785   2.123   1.936  0.00  0.00    -0.298 OA
ATOM      6  C6  <0> d           2.125  -0.069   1.319  0.00  0.00    -0.009 C 
ATOM      7  C7  <0> d           0.661  -0.521   1.282  0.00  0.00    -0.056 C 
ATOM      8  H4  <0> d           0.566  -0.354  -0.863  0.00  0.00     0.039 H 
ATOM      9  H5  <0> d          -0.545   1.887  -0.873  0.00  0.00     0.034 H 
ATOM     10  H6  <0> d          -0.528   1.877   0.907  0.00  0.00     0.034 H 
ATOM     11  H7  <0> d           1.859   1.807  -0.864  0.00  0.00     0.044 H 
ATOM     12  H8  <0> d           1.412   3.139   0.107  0.00  0.00     0.044 H 
ATOM     13  H9  <0> d           2.540  -0.323   2.192  0.00  0.00     0.044 H 
ATOM     14  H10 <0> d           2.674  -0.540   0.504  0.00  0.00     0.044 H 
ATOM     15  H11 <0> d           0.135  -0.121   2.149  0.00  0.00     0.034 H 
ATOM     16  H12 <0> d           0.616  -1.610   1.300  0.00  0.00     0.034 H 
ENDROOT
BRANCH   1  17
ATOM     17  C1  <0> d          -1.432  -0.532  -0.080  0.00  0.00    -0.073 C 
ATOM     18  H1  <0> d          -1.900  -0.169  -0.995  0.00  0.00     0.028 H 
ATOM     19  H2  <0> d          -1.418  -1.622  -0.086  0.00  0.00     0.028 H 
ATOM     20  H3  <0> d          -1.998  -0.180   0.782  0.00  0.00     0.028 H 
ENDBRANCH   1  17
TORSDOF 1
