REMARK  2 active torsions:
REMARK  status: ('A' for Active; 'I' for Inactive)
REMARK    1  A    between atoms: C3_4  and  N3_9 
REMARK    2  A    between atoms: C4_5  and  N2_8 
ROOT
ATOM      1  C1  <0> d          -0.017   1.385   0.010  0.00  0.00    -0.043 A 
ATOM      2  C2  <0> d           1.176   2.078   0.002  0.00  0.00     0.006 A 
ATOM      3  N1  <0> d           2.333   1.441  -0.013  0.00  0.00    -0.241 NA
ATOM      4  C3  <0> d           2.399   0.120  -0.021  0.00  0.00     0.149 A 
ATOM      5  C4  <0> d           1.233  -0.649  -0.013  0.00  0.00     0.093 A 
ATOM      6  C5  <0> d           0.002  -0.004   0.002  0.00  0.00     0.065 A 
ATOM      7 Cl1  <0> d          -1.477  -0.913   0.012  0.00  0.00    -0.082 Cl
ATOM      8  H1  <0> d          -0.956   1.918   0.026  0.00  0.00     0.088 H 
ATOM      9  H2  <0> d           1.164   3.158   0.008  0.00  0.00     0.114 H 
ENDROOT
BRANCH   4  10
ATOM     10  N3  <0> d           3.642  -0.510  -0.037  0.00  0.00    -0.382 N 
ATOM     11  H5  <0> d           4.454   0.020  -0.042  0.00  0.00     0.157 HD
ATOM     12  H6  <0> d           3.694  -1.478  -0.043  0.00  0.00     0.157 HD
ENDBRANCH   4  10
BRANCH   5  13
ATOM     13  N2  <0> d           1.303  -2.048  -0.022  0.00  0.00    -0.395 N 
ATOM     14  H3  <0> d           2.167  -2.490  -0.033  0.00  0.00     0.156 HD
ATOM     15  H4  <0> d           0.489  -2.575  -0.017  0.00  0.00     0.156 HD
ENDBRANCH   5  13
TORSDOF 2
