REMARK  0 active torsions:
REMARK  status: ('A' for Active; 'I' for Inactive)
ROOT
ATOM      1  C1  <0> d           2.144   1.524   1.219  0.00  0.00    -0.064 C 
ATOM      2  C2  <0> d           1.390   2.100   0.000  0.00  0.00    -0.063 C 
ATOM      3  C3  <0> d          -0.018   1.515   0.010  0.00  0.00    -0.045 C 
ATOM      4  C4  <0> d           0.002  -0.004   0.002  0.00  0.00     0.024 A 
ATOM      5  H1  <0> d          -0.330  -0.419  -0.950  0.00  0.00     0.073 H 
ATOM      6  C5  <0> d           1.209  -0.720   0.570  0.00  0.00     0.043 A 
ATOM      7  H2  <0> d           1.468  -1.581  -0.045  0.00  0.00     0.057 H 
ATOM      8  C6  <0> d           2.450   0.058   0.923  0.00  0.00    -0.052 C 
ATOM      9  C7  <0> d           0.343  -1.145   1.730  0.00  0.00     0.224 A 
ATOM     10  O1  <0> d           0.537  -1.760   2.757  0.00  0.00    -0.273 OA
ATOM     11  N1  <0> d          -0.732  -0.559   1.164  0.00  0.00    -0.355 N 
ATOM     12  H3  <0> d           1.523   1.599   2.112  0.00  0.00     0.033 H 
ATOM     13  H4  <0> d           3.074   2.072   1.370  0.00  0.00     0.033 H 
ATOM     14  H5  <0> d           1.896   1.825  -0.925  0.00  0.00     0.033 H 
ATOM     15  H6  <0> d           1.338   3.186   0.084  0.00  0.00     0.033 H 
ATOM     16  H7  <0> d          -0.556   1.868  -0.870  0.00  0.00     0.036 H 
ATOM     17  H8  <0> d          -0.539   1.858   0.904  0.00  0.00     0.036 H 
ATOM     18  H9  <0> d           2.911  -0.392   1.803  0.00  0.00     0.034 H 
ATOM     19  H10 <0> d           3.150   0.005   0.090  0.00  0.00     0.034 H 
ATOM     20  H11 <0> d          -1.664  -0.519   1.429  0.00  0.00     0.162 HD
ENDROOT
TORSDOF 0
