REMARK  6 active torsions:
REMARK  status: ('A' for Active; 'I' for Inactive)
REMARK    1  A    between atoms: C1_1  and  C2_2 
REMARK    2  A    between atoms: C2_2  and  C3_4 
REMARK    3  A    between atoms: C3_4  and  C4_5 
REMARK    4  A    between atoms: C3_4  and  C5_6 
REMARK    5  A    between atoms: C3_4  and  C6_7 
REMARK    6  A    between atoms: C6_7  and  O2_8 
ROOT
ATOM      1  C3  <0> d          -1.293  -0.775   0.010  0.00  0.00     0.034 C 
ENDROOT
BRANCH   1   2
ATOM      2  C2  <0> d           0.002  -0.004   0.002  0.00  0.00     0.133 C 
ATOM      3  O1  <0> d           1.056  -0.594  -0.011  0.00  0.00    -0.297 OA
BRANCH   2   4
ATOM      4  C1  <0> d          -0.018   1.503   0.010  0.00  0.00    -0.020 C 
ATOM      5  H1  <0> d           1.004   1.880   0.003  0.00  0.00     0.037 H 
ATOM      6  H2  <0> d          -0.545   1.864  -0.873  0.00  0.00     0.037 H 
ATOM      7  H3  <0> d          -0.529   1.854   0.907  0.00  0.00     0.037 H 
ENDBRANCH   2   4
ENDBRANCH   1   2
BRANCH   1   8
ATOM      8  C4  <0> d          -2.088  -0.423   1.269  0.00  0.00    -0.061 C 
ATOM      9  H4  <0> d          -2.302   0.645   1.277  0.00  0.00     0.029 H 
ATOM     10  H5  <0> d          -3.024  -0.981   1.275  0.00  0.00     0.029 H 
ATOM     11  H6  <0> d          -1.504  -0.684   2.152  0.00  0.00     0.029 H 
ENDBRANCH   1   8
BRANCH   1  12
ATOM     12  C5  <0> d          -2.112  -0.410  -1.229  0.00  0.00    -0.061 C 
ATOM     13  H7  <0> d          -1.545  -0.661  -2.126  0.00  0.00     0.029 H 
ATOM     14  H8  <0> d          -3.048  -0.968  -1.223  0.00  0.00     0.029 H 
ATOM     15  H9  <0> d          -2.325   0.659  -1.222  0.00  0.00     0.029 H 
ENDBRANCH   1  12
BRANCH   1  16
ATOM     16  C6  <0> d          -0.993  -2.276  -0.001  0.00  0.00     0.029 C 
ATOM     17  H10 <0> d          -0.426  -2.526  -0.897  0.00  0.00     0.075 H 
ATOM     18  H11 <0> d          -0.409  -2.536   0.882  0.00  0.00     0.075 H 
BRANCH  16  19
ATOM     19  O2  <0> d          -2.220  -3.007   0.007  0.00  0.00    -0.400 OA
ATOM     20  H12 <0> d          -2.106  -3.967   0.001  0.00  0.00     0.209 HD
ENDBRANCH  16  19
ENDBRANCH   1  16
TORSDOF 6
