REMARK  0 active torsions:
REMARK  status: ('A' for Active; 'I' for Inactive)
ROOT
ATOM      1  C1  <0> d          -1.534   2.845   0.748  0.00  0.00    -0.060 C 
ATOM      2  C2  <0> d          -0.764   1.598   1.255  0.00  0.00    -0.060 C 
ATOM      3  C3  <0> d          -0.013   1.086   0.008  0.00  0.00    -0.013 C 
ATOM      4  C4  <0> d          -0.784   1.609  -1.212  0.00  0.00     0.164 C 
ATOM      5  C5  <0> d          -1.976   2.421  -0.675  0.00  0.00    -0.013 C 
ATOM      6  O1  <0> d          -1.258   0.512  -2.005  0.00  0.00    -0.353 OA
ATOM      7  C6  <0> d          -1.182   0.987  -3.372  0.00  0.00     0.043 C 
ATOM      8  C7  <0> d           0.098   1.859  -3.333  0.00  0.00     0.043 C 
ATOM      9  O2  <0> d           0.058   2.442  -2.014  0.00  0.00    -0.353 OA
ATOM     10  H1  <0> d          -0.876   3.713   0.706  0.00  0.00     0.033 H 
ATOM     11  H2  <0> d          -2.400   3.046   1.378  0.00  0.00     0.033 H 
ATOM     12  H3  <0> d          -1.461   0.842   1.618  0.00  0.00     0.033 H 
ATOM     13  H4  <0> d          -0.059   1.876   2.038  0.00  0.00     0.033 H 
ATOM     14  H5  <0> d           0.002  -0.004   0.002  0.00  0.00     0.041 H 
ATOM     15  H6  <0> d           1.006   1.473   0.000  0.00  0.00     0.041 H 
ATOM     16  H7  <0> d          -2.151   3.299  -1.298  0.00  0.00     0.041 H 
ATOM     17  H8  <0> d          -2.871   1.801  -0.630  0.00  0.00     0.041 H 
ATOM     18  H9  <0> d          -2.056   1.588  -3.625  0.00  0.00     0.077 H 
ATOM     19  H10 <0> d          -1.067   0.156  -4.068  0.00  0.00     0.077 H 
ATOM     20  H11 <0> d           0.059   2.634  -4.098  0.00  0.00     0.077 H 
ATOM     21  H12 <0> d           0.988   1.241  -3.454  0.00  0.00     0.077 H 
ENDROOT
TORSDOF 0
