REMARK  2 active torsions:
REMARK  status: ('A' for Active; 'I' for Inactive)
REMARK    1  A    between atoms: C2_2  and  N4_12 
REMARK    2  A    between atoms: C4_4  and  N3_11 
ROOT
ATOM      1  C1  <0> d           0.002  -0.004   0.002  0.00  0.00    -0.044 A 
ATOM      2  C2  <0> d           1.209  -0.674  -0.013  0.00  0.00     0.028 A 
ATOM      3  C3  <0> d           2.410   0.035  -0.021  0.00  0.00    -0.030 A 
ATOM      4  C4  <0> d           2.409   1.416  -0.013  0.00  0.00     0.057 A 
ATOM      5  C5  <0> d           1.195   2.110   0.002  0.00  0.00     0.088 A 
ATOM      6  C6  <0> d          -0.017   1.398   0.010  0.00  0.00     0.016 A 
ATOM      7  C7  <0> d          -1.059   2.357   0.019  0.00  0.00     0.034 A 
ATOM      8  N1  <0> d          -0.531   3.547   0.025  0.00  0.00    -0.186 NA
ATOM      9  N2  <0> d           0.866   3.445   0.012  0.00  0.00    -0.276 N 
ATOM     10  H1  <0> d           1.511   4.209   0.010  0.00  0.00     0.189 HD
ATOM     11  H2  <0> d          -0.925  -0.558   0.007  0.00  0.00     0.088 H 
ATOM     12  H3  <0> d           3.348  -0.500  -0.032  0.00  0.00     0.090 H 
ATOM     13  H4  <0> d          -2.116   2.138   0.022  0.00  0.00     0.118 H 
ENDROOT
BRANCH   2  14
ATOM     14  N4  <0> d           1.227  -2.073  -0.021  0.00  0.00    -0.399 N 
ATOM     15  H7  <0> d           0.394  -2.569  -0.016  0.00  0.00     0.156 HD
ATOM     16  H8  <0> d           2.073  -2.547  -0.032  0.00  0.00     0.156 HD
ENDBRANCH   2  14
BRANCH   4  17
ATOM     17  N3  <0> d           3.617   2.118  -0.022  0.00  0.00    -0.397 N 
ATOM     18  H5  <0> d           4.458   1.635  -0.033  0.00  0.00     0.156 HD
ATOM     19  H6  <0> d           3.614   3.088  -0.016  0.00  0.00     0.156 HD
ENDBRANCH   4  17
TORSDOF 2
