REMARK  6 active torsions:
REMARK  status: ('A' for Active; 'I' for Inactive)
REMARK    1  A    between atoms: C1_1  and  C2_2 
REMARK    2  A    between atoms: C2_2  and  C3_3 
REMARK    3  A    between atoms: C3_3  and  C4_4 
REMARK    4  A    between atoms: C4_4  and  O1_5 
REMARK    5  A    between atoms: O1_5  and  C5_6 
REMARK       I    between atoms: C5_6  and  N1_8 
REMARK    6  A    between atoms: N1_8  and  C6_9 
ROOT
ATOM      1  C4  <0> d          -1.135   3.452   0.026  0.00  0.00     0.030 C 
ATOM      2  H8  <0> d          -0.603   3.790   0.915  0.00  0.00     0.075 H 
ATOM      3  H9  <0> d          -0.612   3.800  -0.864  0.00  0.00     0.075 H 
ENDROOT
BRANCH   1   4
ATOM      4  C3  <0> d          -2.557   4.017   0.036  0.00  0.00    -0.045 C 
ATOM      5  H6  <0> d          -3.088   3.679  -0.853  0.00  0.00     0.036 H 
ATOM      6  H7  <0> d          -3.080   3.669   0.927  0.00  0.00     0.036 H 
BRANCH   4   7
ATOM      7  C2  <0> d          -2.497   5.546   0.044  0.00  0.00    -0.067 C 
ATOM      8  H4  <0> d          -1.965   5.884   0.933  0.00  0.00     0.032 H 
ATOM      9  H5  <0> d          -1.974   5.894  -0.847  0.00  0.00     0.032 H 
BRANCH   7  10
ATOM     10  C1  <0> d          -3.919   6.112   0.054  0.00  0.00    -0.076 C 
ATOM     11  H1  <0> d          -3.877   7.201   0.060  0.00  0.00     0.027 H 
ATOM     12  H2  <0> d          -4.450   5.773  -0.836  0.00  0.00     0.027 H 
ATOM     13  H3  <0> d          -4.442   5.764   0.944  0.00  0.00     0.027 H 
ENDBRANCH   7  10
ENDBRANCH   4   7
ENDBRANCH   1   4
BRANCH   1  14
ATOM     14  O1  <0> d          -1.191   2.001   0.019  0.00  0.00    -0.304 OA
BRANCH  14  15
ATOM     15  C5  <0> d          -0.016   1.344   0.009  0.00  0.00     0.360 C 
ATOM     16  O2  <0> d           1.028   1.965   0.003  0.00  0.00    -0.239 OA
ATOM     17  N1  <0> d           0.002  -0.004   0.002  0.00  0.00    -0.341 N 
ATOM     18  H10 <0> d          -0.831  -0.500   0.007  0.00  0.00     0.164 HD
BRANCH  17  19
ATOM     19  C6  <0> d           1.281  -0.719  -0.014  0.00  0.00    -0.016 C 
ATOM     20  H11 <0> d           1.857  -0.453   0.872  0.00  0.00     0.056 H 
ATOM     21  H12 <0> d           1.096  -1.794  -0.018  0.00  0.00     0.056 H 
ATOM     22  H13 <0> d           1.840  -0.443  -0.908  0.00  0.00     0.056 H 
ENDBRANCH  17  19
ENDBRANCH  14  15
ENDBRANCH   1  14
TORSDOF 6
