REMARK  1 active torsions:
REMARK  status: ('A' for Active; 'I' for Inactive)
REMARK    1  A    between atoms: C5_6  and  O1_9 
ROOT
ATOM      1  C1  <0> d           0.718  -0.497  -1.257  0.00  0.00    -0.063 C 
ATOM      2  C2  <0> d           2.154   0.032  -1.268  0.00  0.00    -0.062 C 
ATOM      3  C3  <0> d           2.133   1.562  -1.259  0.00  0.00    -0.034 C 
ATOM      4  C4  <0> d           1.417   2.055  -0.000  0.00  0.00     0.103 C 
ATOM      5  H1  <0> d           1.944   1.694   0.883  0.00  0.00     0.095 H 
ATOM      6  C5  <0> d          -0.019   1.526   0.010  0.00  0.00     0.065 C 
ATOM      7  H2  <0> d          -0.546   1.887  -0.873  0.00  0.00     0.087 H 
ATOM      8  C6  <0> d           0.002  -0.004   0.002  0.00  0.00    -0.038 C 
ATOM      9  F1  <0> d           1.398   3.454   0.007  0.00  0.00    -0.247 F 
ATOM     10  H3  <0> d           0.733  -1.587  -1.263  0.00  0.00     0.033 H 
ATOM     11  H4  <0> d           0.191  -0.136  -2.140  0.00  0.00     0.033 H 
ATOM     12  H5  <0> d           2.681  -0.329  -0.385  0.00  0.00     0.033 H 
ATOM     13  H6  <0> d           2.664  -0.319  -2.164  0.00  0.00     0.033 H 
ATOM     14  H7  <0> d           3.155   1.939  -1.267  0.00  0.00     0.037 H 
ATOM     15  H8  <0> d           1.606   1.923  -2.142  0.00  0.00     0.037 H 
ATOM     16  H9  <0> d           0.529  -0.365   0.885  0.00  0.00     0.036 H 
ATOM     17  H10 <0> d          -1.020  -0.381   0.010  0.00  0.00     0.036 H 
ENDROOT
BRANCH   6  18
ATOM     18  O1  <0> d          -0.688   1.987   1.186  0.00  0.00    -0.393 OA
ATOM     19  H11 <0> d          -0.738   2.950   1.258  0.00  0.00     0.210 HD
ENDBRANCH   6  18
TORSDOF 1
