REMARK  0 active torsions:
REMARK  status: ('A' for Active; 'I' for Inactive)
ROOT
ATOM      1  C1  <0> d          -1.451  -1.392  -1.374  0.00  0.00    -0.043 C 
ATOM      2  C2  <0> d          -1.439  -0.539  -0.081  0.00  0.00    -0.034 C 
ATOM      3  C3  <0> d           0.002  -0.004   0.002  0.00  0.00     0.061 C 
ATOM      4  C4  <0> d          -0.019   1.523   0.010  0.00  0.00    -0.030 C 
ATOM      5  C5  <0> d           1.419   2.054  -0.001  0.00  0.00    -0.007 C 
ATOM      6  C6  <0> d           2.171   1.427   1.153  0.00  0.00     0.127 C 
ATOM      7  O1  <0> d           2.784   2.112   1.937  0.00  0.00    -0.298 OA
ATOM      8  C7  <0> d           2.136  -0.078   1.300  0.00  0.00    -0.007 C 
ATOM      9  C8  <0> d           0.674  -0.536   1.266  0.00  0.00    -0.030 C 
ATOM     10  O2  <0> d           0.705  -0.475  -1.158  0.00  0.00    -0.380 OA
ATOM     11  C9  <0> d           0.055  -1.695  -1.577  0.00  0.00     0.021 C 
ATOM     12  H1  <0> d          -1.836  -0.844  -2.247  0.00  0.00     0.036 H 
ATOM     13  H2  <0> d          -2.003  -2.337  -1.261  0.00  0.00     0.036 H 
ATOM     14  H3  <0> d          -2.177   0.272  -0.170  0.00  0.00     0.037 H 
ATOM     15  H4  <0> d          -1.695  -1.174   0.779  0.00  0.00     0.037 H 
ATOM     16  H5  <0> d          -0.551   1.888  -0.881  0.00  0.00     0.038 H 
ATOM     17  H6  <0> d          -0.533   1.878   0.915  0.00  0.00     0.038 H 
ATOM     18  H7  <0> d           1.901   1.786  -0.952  0.00  0.00     0.044 H 
ATOM     19  H8  <0> d           1.407   3.148   0.110  0.00  0.00     0.044 H 
ATOM     20  H9  <0> d           2.693  -0.540   0.472  0.00  0.00     0.044 H 
ATOM     21  H10 <0> d           2.597  -0.364   2.257  0.00  0.00     0.044 H 
ATOM     22  H11 <0> d           0.148  -0.149   2.152  0.00  0.00     0.038 H 
ATOM     23  H12 <0> d           0.634  -1.635   1.268  0.00  0.00     0.038 H 
ATOM     24  H13 <0> d           0.343  -2.557  -0.957  0.00  0.00     0.074 H 
ATOM     25  H14 <0> d           0.243  -1.926  -2.636  0.00  0.00     0.074 H 
ENDROOT
TORSDOF 0
