REMARK  3 active torsions:
REMARK  status: ('A' for Active; 'I' for Inactive)
REMARK    1  A    between atoms: C1_1  and  C2_2 
REMARK    2  A    between atoms: C4_5  and  C10_13 
REMARK    3  A    between atoms: C6_7  and  C9_12 
ROOT
ATOM      1  C2  <0> d           2.151   1.063  -1.233  0.00  0.00    -0.049 C 
ATOM      2  H1  <0> d           2.136  -0.027  -1.204  0.00  0.00     0.040 H 
ATOM      3  C3  <0> d           1.422   1.576  -2.494  0.00  0.00    -0.033 C 
ATOM      4  C4  <0> d           0.231   2.442  -2.072  0.00  0.00     0.058 C 
ATOM      5  C5  <0> d          -0.739   1.596  -1.241  0.00  0.00    -0.033 C 
ATOM      6  C6  <0> d          -0.013   1.086   0.008  0.00  0.00    -0.049 C 
ATOM      7  H2  <0> d           0.002  -0.004   0.002  0.00  0.00     0.040 H 
ATOM      8  C7  <0> d           1.425   1.619  -0.003  0.00  0.00    -0.027 C 
ATOM      9  C8  <0> d           1.383   3.149  -0.089  0.00  0.00     0.025 C 
ATOM     10  O1  <0> d           0.699   3.537  -1.282  0.00  0.00    -0.380 OA
ATOM     11  H6  <0> d           1.066   0.725  -3.075  0.00  0.00     0.037 H 
ATOM     12  H7  <0> d           2.107   2.170  -3.100  0.00  0.00     0.037 H 
ATOM     13  H8  <0> d          -1.084   0.749  -1.833  0.00  0.00     0.037 H 
ATOM     14  H9  <0> d          -1.591   2.207  -0.943  0.00  0.00     0.037 H 
ATOM     15  H10 <0> d           1.942   1.311   0.905  0.00  0.00     0.044 H 
ATOM     16  H11 <0> d           0.858   3.548   0.779  0.00  0.00     0.075 H 
ATOM     17  H12 <0> d           2.401   3.539  -0.110  0.00  0.00     0.075 H 
ENDROOT
BRANCH   1  18
ATOM     18  C1  <0> d           3.598   1.560  -1.243  0.00  0.00    -0.072 C 
ATOM     19  H3  <0> d           4.104   1.221  -0.340  0.00  0.00     0.028 H 
ATOM     20  H4  <0> d           4.112   1.163  -2.119  0.00  0.00     0.028 H 
ATOM     21  H5  <0> d           3.607   2.649  -1.279  0.00  0.00     0.028 H 
ENDBRANCH   1  18
BRANCH   6  22
ATOM     22  C9  <0> d          -0.734   1.582   1.263  0.00  0.00    -0.072 C 
ATOM     23  H13 <0> d          -0.748   2.672   1.267  0.00  0.00     0.028 H 
ATOM     24  H14 <0> d          -1.757   1.206   1.266  0.00  0.00     0.028 H 
ATOM     25  H15 <0> d          -0.212   1.222   2.149  0.00  0.00     0.028 H 
ENDBRANCH   6  22
BRANCH   4  26
ATOM     26  C10 <0> d          -0.488   2.975  -3.312  0.00  0.00    -0.048 C 
ATOM     27  H16 <0> d           0.202   3.578  -3.902  0.00  0.00     0.031 H 
ATOM     28  H17 <0> d          -0.844   2.139  -3.914  0.00  0.00     0.031 H 
ATOM     29  H18 <0> d          -1.335   3.588  -3.005  0.00  0.00     0.031 H 
ENDBRANCH   4  26
TORSDOF 3
