REMARK  5 active torsions:
REMARK  status: ('A' for Active; 'I' for Inactive)
REMARK    1  A    between atoms: C1_1  and  C2_2 
REMARK    2  A    between atoms: C2_2  and  C3_4 
REMARK    3  A    between atoms: C2_2  and  C6_9 
REMARK    4  A    between atoms: C3_4  and  C4_6 
REMARK    5  A    between atoms: C3_4  and  C5_7 
ROOT
ATOM      1  C2  <0> d          -0.729   1.579   1.267  0.00  0.00     0.039 C 
ATOM      2  H1  <0> d          -0.744   2.669   1.273  0.00  0.00     0.057 H 
ENDROOT
BRANCH   1   3
ATOM      3  C1  <0> d          -0.013   1.086   0.008  0.00  0.00    -0.063 C 
ATOM      4  H3  <0> d           0.002  -0.004   0.002  0.00  0.00     0.028 H 
ATOM      5  H4  <0> d           1.010   1.463   0.000  0.00  0.00     0.028 H 
ATOM      6  H5  <0> d          -0.540   1.447  -0.875  0.00  0.00     0.028 H 
ENDBRANCH   1   3
BRANCH   1   7
ATOM      7  C3  <0> d           0.011   1.072   2.506  0.00  0.00     0.039 C 
ATOM      8  H2  <0> d           0.026  -0.018   2.500  0.00  0.00     0.057 H 
BRANCH   7   9
ATOM      9  C4  <0> d           1.446   1.602   2.495  0.00  0.00    -0.063 C 
ATOM     10  H6  <0> d           1.974   1.241   3.378  0.00  0.00     0.028 H 
ATOM     11  H7  <0> d           1.957   1.250   1.599  0.00  0.00     0.028 H 
ATOM     12  H8  <0> d           1.432   2.692   2.502  0.00  0.00     0.028 H 
ENDBRANCH   7   9
BRANCH   7  13
ATOM     13  C5  <0> d          -0.694   1.558   3.746  0.00  0.00     0.177 C 
ATOM     14  O1  <0> d          -1.687   2.240   3.648  0.00  0.00    -0.648 OA
ATOM     15  O3  <0> d          -0.220   1.234   4.959  0.00  0.00    -0.648 OA
ENDBRANCH   7  13
ENDBRANCH   1   7
BRANCH   1  16
ATOM     16  C6  <0> d          -2.143   1.058   1.278  0.00  0.00     0.177 C 
ATOM     17  O2  <0> d          -2.520   0.353   2.184  0.00  0.00    -0.648 OA
ATOM     18  O4  <0> d          -2.983   1.376   0.281  0.00  0.00    -0.648 OA
ENDBRANCH   1  16
TORSDOF 5
