REMARK  4 active torsions:
REMARK  status: ('A' for Active; 'I' for Inactive)
REMARK    1  A    between atoms: C1_1  and  C2_2 
REMARK    2  A    between atoms: C2_2  and  C3_3 
REMARK    3  A    between atoms: C2_2  and  C4_4 
REMARK    4  A    between atoms: C2_2  and  O1_7 
ROOT
ATOM      1  C2  <0> d           0.002  -0.004   0.002  0.00  0.00     0.054 C 
ENDROOT
BRANCH   1   2
ATOM      2  C1  <0> d           0.718  -0.497  -1.257  0.00  0.00    -0.048 C 
ATOM      3  H1  <0> d           1.741  -0.120  -1.264  0.00  0.00     0.031 H 
ATOM      4  H2  <0> d           0.733  -1.587  -1.263  0.00  0.00     0.031 H 
ATOM      5  H3  <0> d           0.191  -0.136  -2.140  0.00  0.00     0.031 H 
ENDBRANCH   1   2
BRANCH   1   6
ATOM      6  C3  <0> d           0.742  -0.511   1.242  0.00  0.00    -0.048 C 
ATOM      7  H4  <0> d           0.232  -0.159   2.138  0.00  0.00     0.031 H 
ATOM      8  H5  <0> d           0.757  -1.601   1.236  0.00  0.00     0.031 H 
ATOM      9  H6  <0> d           1.765  -0.134   1.234  0.00  0.00     0.031 H 
ENDBRANCH   1   6
BRANCH   1  10
ATOM     10  C4  <0> d          -1.433  -0.534   0.013  0.00  0.00    -0.025 A 
ATOM     11  C6  <0> d          -2.320  -0.146   1.198  0.00  0.00    -0.059 A 
ATOM     12  C5  <0> d          -2.562   0.481  -0.177  0.00  0.00    -0.059 A 
ATOM     13  H10 <0> d          -3.042  -0.884   1.548  0.00  0.00     0.033 H 
ATOM     14  H11 <0> d          -1.881   0.486   1.970  0.00  0.00     0.033 H 
ATOM     15  H8  <0> d          -2.282   1.526  -0.310  0.00  0.00     0.033 H 
ATOM     16  H9  <0> d          -3.443   0.156  -0.731  0.00  0.00     0.033 H 
ATOM     17  H7  <0> d          -1.571  -1.526  -0.416  0.00  0.00     0.044 H 
ENDBRANCH   1  10
BRANCH   1  18
ATOM     18  O1  <0> d          -0.017   1.425   0.010  0.00  0.00    -0.390 OA
ATOM     19  H12 <0> d           0.861   1.830   0.004  0.00  0.00     0.210 HD
ENDBRANCH   1  18
TORSDOF 4
