REMARK  0 active torsions:
REMARK  status: ('A' for Active; 'I' for Inactive)
ROOT
ATOM      1  C1  <0> d          -0.013   1.076   0.008  0.00  0.00    -0.082 A 
ATOM      2  C2  <0> d          -1.234   1.747   0.017  0.00  0.00    -0.081 A 
ATOM      3  C3  <0> d          -1.287   3.107   0.030  0.00  0.00    -0.054 A 
ATOM      4  C4  <0> d          -0.096   3.852   0.023  0.00  0.00     0.070 A 
ATOM      5  C5  <0> d           1.145   3.168   0.008  0.00  0.00    -0.007 A 
ATOM      6  C6  <0> d           1.162   1.764   0.000  0.00  0.00    -0.071 A 
ATOM      7  C7  <0> d           2.338   3.915   0.001  0.00  0.00    -0.066 A 
ATOM      8  C8  <0> d           2.246   5.277   0.010  0.00  0.00    -0.026 A 
ATOM      9  C9  <0> d           0.992   5.890   0.025  0.00  0.00     0.210 A 
ATOM     10  N1  <0> d          -0.118   5.189   0.031  0.00  0.00    -0.220 NA
ATOM     11  F1  <0> d           0.918   7.239   0.033  0.00  0.00    -0.184 F 
ATOM     12  H1  <0> d           0.002  -0.004   0.002  0.00  0.00     0.083 H 
ATOM     13  H2  <0> d          -2.152   1.179   0.019  0.00  0.00     0.083 H 
ATOM     14  H3  <0> d          -2.242   3.611   0.041  0.00  0.00     0.087 H 
ATOM     15  H4  <0> d           2.103   1.232  -0.011  0.00  0.00     0.084 H 
ATOM     16  H5  <0> d           3.300   3.424  -0.010  0.00  0.00     0.085 H 
ATOM     17  H6  <0> d           3.143   5.879   0.006  0.00  0.00     0.090 H 
ENDROOT
TORSDOF 0
