REMARK  2 active torsions:
REMARK  status: ('A' for Active; 'I' for Inactive)
REMARK    1  A    between atoms: C2_2  and  O4_10 
REMARK    2  A    between atoms: C3_4  and  O3_9 
ROOT
ATOM      1  C1  <0> d          -0.565   1.622   1.349  0.00  0.00     0.055 C 
ATOM      2  C2  <0> d          -0.013   1.086   0.008  0.00  0.00     0.090 C 
ATOM      3  H1  <0> d           0.002  -0.004   0.002  0.00  0.00     0.091 H 
ATOM      4  C3  <0> d           1.423   1.656  -0.003  0.00  0.00     0.145 C 
ATOM      5  H2  <0> d           2.143   0.875   0.243  0.00  0.00     0.103 H 
ATOM      6  C4  <0> d           1.422   2.729   1.064  0.00  0.00     0.290 C 
ATOM      7  O1  <0> d           2.382   3.386   1.389  0.00  0.00    -0.262 OA
ATOM      8  O2  <0> d           0.195   2.841   1.594  0.00  0.00    -0.317 OA
ATOM      9  H3  <0> d          -1.628   1.847   1.259  0.00  0.00     0.079 H 
ATOM     10  H4  <0> d          -0.394   0.899   2.147  0.00  0.00     0.079 H 
ENDROOT
BRANCH   2  11
ATOM     11  O4  <0> d          -0.768   1.588  -1.096  0.00  0.00    -0.390 OA
ATOM     12  H6  <0> d          -1.689   1.294  -1.109  0.00  0.00     0.210 HD
ENDBRANCH   2  11
BRANCH   4  13
ATOM     13  O3  <0> d           1.724   2.224  -1.279  0.00  0.00    -0.383 OA
ATOM     14  H5  <0> d           2.613   2.597  -1.344  0.00  0.00     0.210 HD
ENDBRANCH   4  13
TORSDOF 2
