REMARK  2 active torsions:
REMARK  status: ('A' for Active; 'I' for Inactive)
REMARK    1  A    between atoms: C1_1  and  C2_2 
REMARK    2  A    between atoms: C6_6  and  N4_12 
ROOT
ATOM      1  C2  <0> d           0.002  -0.004   0.002  0.00  0.00     0.033 A 
ATOM      2  C3  <0> d           0.005  -0.666  -1.223  0.00  0.00    -0.058 A 
ATOM      3  C4  <0> d           0.023  -2.030  -1.277  0.00  0.00    -0.064 A 
ATOM      4  C5  <0> d           0.038  -2.741  -0.064  0.00  0.00     0.056 A 
ATOM      5  C6  <0> d           0.057  -4.089   0.288  0.00  0.00     0.127 A 
ATOM      6  N1  <0> d           0.065  -4.157   1.629  0.00  0.00    -0.283 N 
ATOM      7  N2  <0> d           0.051  -2.869   2.173  0.00  0.00    -0.282 N 
ATOM      8  H1  <0> d           0.078  -4.979   2.145  0.00  0.00     0.188 HD
ATOM      9  C7  <0> d           0.035  -1.982   1.196  0.00  0.00     0.156 A 
ATOM     10  N3  <0> d           0.022  -0.639   1.147  0.00  0.00    -0.234 NA
ATOM     11  H5  <0> d          -0.007  -0.095  -2.140  0.00  0.00     0.086 H 
ATOM     12  H6  <0> d           0.025  -2.549  -2.224  0.00  0.00     0.085 H 
ATOM     13  H9  <0> d           0.053  -2.659   3.120  0.00  0.00     0.188 HD
ENDROOT
BRANCH   1  14
ATOM     14  C1  <0> d          -0.018   1.503   0.010  0.00  0.00    -0.035 C 
ATOM     15  H2  <0> d           1.004   1.880   0.003  0.00  0.00     0.035 H 
ATOM     16  H3  <0> d          -0.545   1.864  -0.873  0.00  0.00     0.035 H 
ATOM     17  H4  <0> d          -0.529   1.854   0.907  0.00  0.00     0.035 H 
ENDBRANCH   1  14
BRANCH   5  18
ATOM     18  N4  <0> d           0.067  -5.163  -0.585  0.00  0.00    -0.384 N 
ATOM     19  H7  <0> d           0.060  -5.010  -1.542  0.00  0.00     0.157 HD
ATOM     20  H8  <0> d           0.080  -6.069  -0.239  0.00  0.00     0.157 HD
ENDBRANCH   5  18
TORSDOF 2
