REMARK  2 active torsions:
REMARK  status: ('A' for Active; 'I' for Inactive)
REMARK    1  A    between atoms: C1_1  and  C2_2 
REMARK    2  A    between atoms: C6_7  and  O1_8 
ROOT
ATOM      1  C2  <0> d          -0.017   1.382   0.010  0.00  0.00    -0.024 A 
ATOM      2  C3  <0> d           0.002  -0.004   0.002  0.00  0.00    -0.058 A 
ATOM      3  C4  <0> d           1.216  -0.663  -0.013  0.00  0.00     0.004 A 
ATOM      4  N1  <0> d           2.352   0.009  -0.021  0.00  0.00    -0.246 NA
ATOM      5  C5  <0> d           2.378   1.328  -0.014  0.00  0.00     0.159 A 
ATOM      6  C6  <0> d           1.197   2.060   0.002  0.00  0.00     0.112 A 
ATOM      7 Cl1  <0> d           3.903   2.157  -0.025  0.00  0.00    -0.059 Cl
ATOM      8  H4  <0> d          -0.922  -0.563   0.007  0.00  0.00     0.086 H 
ATOM      9  H5  <0> d           1.237  -1.742  -0.019  0.00  0.00     0.114 H 
ENDROOT
BRANCH   1  10
ATOM     10  C1  <0> d          -1.321   2.136   0.020  0.00  0.00    -0.049 C 
ATOM     11  H1  <0> d          -1.631   2.312   1.050  0.00  0.00     0.033 H 
ATOM     12  H2  <0> d          -1.193   3.091  -0.489  0.00  0.00     0.033 H 
ATOM     13  H3  <0> d          -2.084   1.550  -0.493  0.00  0.00     0.033 H 
ENDBRANCH   1  10
BRANCH   6  14
ATOM     14  O1  <0> d           1.228   3.419   0.008  0.00  0.00    -0.357 OA
ATOM     15  H6  <0> d           1.245   3.807   0.893  0.00  0.00     0.217 HD
ENDBRANCH   6  14
TORSDOF 2
