REMARK  2 active torsions:
REMARK  status: ('A' for Active; 'I' for Inactive)
REMARK    1  A    between atoms: C1_1  and  C2_2 
REMARK    2  A    between atoms: C6_6  and  N1_9 
ROOT
ATOM      1  C2  <0> d          -3.631   1.618   0.029  0.00  0.00    -0.038 A 
ATOM      2  C3  <0> d          -3.649   3.000   0.037  0.00  0.00    -0.073 A 
ATOM      3  C4  <0> d          -2.462   3.710   0.035  0.00  0.00    -0.043 A 
ATOM      4  C5  <0> d          -1.253   3.039   0.030  0.00  0.00     0.144 A 
ATOM      5  C6  <0> d          -1.232   1.649   0.017  0.00  0.00     0.087 A 
ATOM      6  C7  <0> d          -2.427   0.940   0.019  0.00  0.00     0.069 A 
ATOM      7 Cl1  <0> d          -2.407  -0.796   0.009  0.00  0.00    -0.081 Cl
ATOM      8  F1  <0> d          -0.094   3.733   0.034  0.00  0.00    -0.204 F 
ATOM      9  H4  <0> d          -4.592   3.527   0.044  0.00  0.00     0.084 H 
ATOM     10  H5  <0> d          -2.480   4.790   0.042  0.00  0.00     0.088 H 
ENDROOT
BRANCH   1  11
ATOM     11  C1  <0> d          -4.928   0.849   0.030  0.00  0.00    -0.050 C 
ATOM     12  H1  <0> d          -5.235   0.657   1.058  0.00  0.00     0.033 H 
ATOM     13  H2  <0> d          -5.697   1.432  -0.477  0.00  0.00     0.033 H 
ATOM     14  H3  <0> d          -4.788  -0.099  -0.490  0.00  0.00     0.033 H 
ENDBRANCH   1  11
BRANCH   5  15
ATOM     15  N1  <0> d          -0.011   0.966   0.007  0.00  0.00    -0.395 N 
ATOM     16  H6  <0> d           0.002  -0.004   0.002  0.00  0.00     0.156 HD
ATOM     17  H7  <0> d           0.822   1.462   0.002  0.00  0.00     0.156 HD
ENDBRANCH   5  15
TORSDOF 2
