REMARK  3 active torsions:
REMARK  status: ('A' for Active; 'I' for Inactive)
REMARK    1  A    between atoms: C1_1  and  C2_2 
REMARK    2  A    between atoms: C5_5  and  C10_11 
REMARK    3  A    between atoms: C6_6  and  C8_8 
ROOT
ATOM      1  C8  <0> d           2.451   3.937  -0.001  0.00  0.00     0.039 C 
ATOM      2  C9  <0> d           2.921   4.091  -1.387  0.00  0.00     0.063 C 
ATOM      3  N1  <0> d           3.284   4.210  -2.458  0.00  0.00    -0.197 NA
ATOM      4  H7  <0> d           2.291   4.920   0.440  0.00  0.00     0.062 H 
ATOM      5  H8  <0> d           3.200   3.396   0.578  0.00  0.00     0.062 H 
ENDROOT
BRANCH   1   6
ATOM      6  C6  <0> d           1.157   3.165   0.008  0.00  0.00    -0.039 A 
ATOM      7  C5  <0> d           1.175   1.783   0.000  0.00  0.00    -0.055 A 
ATOM      8  C4  <0> d          -0.013   1.076   0.008  0.00  0.00    -0.076 A 
ATOM      9  C3  <0> d          -1.219   1.750   0.017  0.00  0.00    -0.077 A 
ATOM     10  H5  <0> d           0.002  -0.004   0.002  0.00  0.00     0.084 H 
ATOM     11  C2  <0> d          -1.238   3.133   0.030  0.00  0.00    -0.061 A 
ATOM     12  H4  <0> d          -2.147   1.198   0.019  0.00  0.00     0.084 H 
ATOM     13  C7  <0> d          -0.050   3.840   0.022  0.00  0.00    -0.070 A 
ATOM     14  H6  <0> d          -0.065   4.920   0.028  0.00  0.00     0.085 H 
BRANCH   7  15
ATOM     15  C10 <0> d           2.490   1.048  -0.016  0.00  0.00    -0.051 C 
ATOM     16  H9  <0> d           2.798   0.876  -1.048  0.00  0.00     0.033 H 
ATOM     17  H10 <0> d           3.247   1.644   0.494  0.00  0.00     0.033 H 
ATOM     18  H11 <0> d           2.378   0.091   0.494  0.00  0.00     0.033 H 
ENDBRANCH   7  15
BRANCH  11  19
ATOM     19  C1  <0> d          -2.553   3.869   0.045  0.00  0.00    -0.051 C 
ATOM     20  H1  <0> d          -2.879   4.051  -0.979  0.00  0.00     0.033 H 
ATOM     21  H2  <0> d          -3.300   3.267   0.563  0.00  0.00     0.033 H 
ATOM     22  H3  <0> d          -2.431   4.820   0.563  0.00  0.00     0.033 H 
ENDBRANCH  11  19
ENDBRANCH   1   6
TORSDOF 3
