REMARK  1 active torsions:
REMARK  status: ('A' for Active; 'I' for Inactive)
REMARK    1  A    between atoms: C1_1  and  C2_2 
ROOT
ATOM      1  C2  <0> d           3.370   0.754  -0.027  0.00  0.00     0.039 A 
ATOM      2  C3  <0> d           4.025  -0.431  -0.040  0.00  0.00    -0.059 A 
ATOM      3  C4  <0> d           3.308  -1.633  -0.039  0.00  0.00    -0.077 A 
ATOM      4  C5  <0> d           1.943  -1.592  -0.025  0.00  0.00    -0.036 A 
ATOM      5  C6  <0> d           1.298  -0.348  -0.012  0.00  0.00     0.161 A 
ATOM      6  N1  <0> d           2.020   0.802  -0.013  0.00  0.00    -0.198 N 
ATOM      7  O1  <0> d           1.258   1.752  -0.001  0.00  0.00    -0.170 OA
ATOM      8  C7  <0> d          -0.016   1.328   0.009  0.00  0.00     0.411 A 
ATOM      9  O2  <0> d          -1.011   2.035   0.018  0.00  0.00    -0.234 OA
ATOM     10  N2  <0> d           0.002  -0.004   0.002  0.00  0.00    -0.166 NA
ATOM     11  H4  <0> d           5.105  -0.449  -0.050  0.00  0.00     0.086 H 
ATOM     12  H5  <0> d           3.828  -2.580  -0.049  0.00  0.00     0.083 H 
ATOM     13  H6  <0> d           1.369  -2.506  -0.025  0.00  0.00     0.089 H 
ENDROOT
BRANCH   1  14
ATOM     14  C1  <0> d           4.159   2.038  -0.028  0.00  0.00    -0.035 C 
ATOM     15  H1  <0> d           4.339   2.353  -1.056  0.00  0.00     0.035 H 
ATOM     16  H2  <0> d           3.596   2.811   0.495  0.00  0.00     0.035 H 
ATOM     17  H3  <0> d           5.112   1.879   0.475  0.00  0.00     0.035 H 
ENDBRANCH   1  14
TORSDOF 1
