REMARK  9 active torsions:
REMARK  status: ('A' for Active; 'I' for Inactive)
REMARK    1  A    between atoms: C1_1  and  C2_2 
REMARK    2  A    between atoms: C2_2  and  C3_3 
REMARK    3  A    between atoms: C2_2  and  C4_4 
REMARK    4  A    between atoms: C4_4  and  O1_5 
REMARK    5  A    between atoms: O1_5  and  C5_6 
REMARK    6  A    between atoms: C5_6  and  C6_7 
REMARK    7  A    between atoms: C6_7  and  C7_9 
REMARK    8  A    between atoms: C6_7  and  O3_11 
REMARK    9  A    between atoms: C7_9  and  O2_10 
ROOT
ATOM      1  C4  <0> d           3.632   5.840   0.365  0.00  0.00     0.022 C 
ATOM      2  H9  <0> d           4.165   5.489   1.249  0.00  0.00     0.074 H 
ATOM      3  H10 <0> d           4.237   5.654  -0.522  0.00  0.00     0.074 H 
ENDROOT
BRANCH   1   4
ATOM      4  C2  <0> d           3.364   7.340   0.494  0.00  0.00    -0.041 C 
ATOM      5  H5  <0> d           2.686   7.518   1.329  0.00  0.00     0.042 H 
BRANCH   4   6
ATOM      6  C1  <0> d           4.683   8.075   0.742  0.00  0.00    -0.071 C 
ATOM      7  H2  <0> d           5.360   7.898  -0.093  0.00  0.00     0.028 H 
ATOM      8  H3  <0> d           4.491   9.144   0.834  0.00  0.00     0.028 H 
ATOM      9  H4  <0> d           5.136   7.707   1.663  0.00  0.00     0.028 H 
ENDBRANCH   4   6
BRANCH   4  10
ATOM     10  C3  <0> d           2.728   7.857  -0.798  0.00  0.00    -0.071 C 
ATOM     11  H6  <0> d           1.788   7.334  -0.975  0.00  0.00     0.028 H 
ATOM     12  H7  <0> d           2.536   8.927  -0.707  0.00  0.00     0.028 H 
ATOM     13  H8  <0> d           3.405   7.680  -1.633  0.00  0.00     0.028 H 
ENDBRANCH   4  10
ENDBRANCH   1   4
BRANCH   1  14
ATOM     14  O1  <0> d           2.391   5.142   0.250  0.00  0.00    -0.388 OA
BRANCH  14  15
ATOM     15  C5  <0> d           2.530   3.725   0.124  0.00  0.00     0.045 C 
ATOM     16  H11 <0> d           3.040   3.331   1.002  0.00  0.00     0.078 H 
ATOM     17  H12 <0> d           3.112   3.495  -0.769  0.00  0.00     0.078 H 
BRANCH  15  18
ATOM     18  C6  <0> d           1.145   3.085   0.008  0.00  0.00     0.076 C 
ATOM     19  H1  <0> d           0.532   3.388   0.857  0.00  0.00     0.089 H 
BRANCH  18  20
ATOM     20  C7  <0> d           1.286   1.562  -0.002  0.00  0.00     0.042 C 
ATOM     21  H13 <0> d           1.840   1.243   0.881  0.00  0.00     0.078 H 
ATOM     22  H14 <0> d           1.823   1.252  -0.899  0.00  0.00     0.078 H 
BRANCH  20  23
ATOM     23  O2  <0> d          -0.011   0.963   0.007  0.00  0.00    -0.398 OA
ATOM     24  H15 <0> d           0.002  -0.004   0.002  0.00  0.00     0.209 HD
ENDBRANCH  20  23
ENDBRANCH  18  20
BRANCH  18  25
ATOM     25  O3  <0> d           0.522   3.513  -1.205  0.00  0.00    -0.391 OA
ATOM     26  H16 <0> d           1.013   3.277  -2.004  0.00  0.00     0.210 HD
ENDBRANCH  18  25
ENDBRANCH  15  18
ENDBRANCH  14  15
ENDBRANCH   1  14
TORSDOF 9
