REMARK  1 active torsions:
REMARK  status: ('A' for Active; 'I' for Inactive)
REMARK    1  A    between atoms: C3_6  and  N3_10 
ROOT
ATOM      1  C1  <0> d          -0.017   1.363   0.009  0.00  0.00     0.023 A 
ATOM      2  C2  <0> d           1.204   2.058   0.002  0.00  0.00     0.262 A 
ATOM      3  O1  <0> d           1.224   3.278   0.008  0.00  0.00    -0.268 OA
ATOM      4  N1  <0> d           2.354   1.351  -0.013  0.00  0.00    -0.154 N 
ATOM      5  H1  <0> d           3.208   1.811  -0.018  0.00  0.00     0.187 HD
ATOM      6  C3  <0> d           2.312  -0.009  -0.020  0.00  0.00     0.702 A 
ATOM      7  N2  <0> d           1.164  -0.656  -0.013  0.00  0.00    -0.053 NA
ATOM      8  C4  <0> d           0.002  -0.004   0.002  0.00  0.00     0.150 A 
ATOM      9 Cl1  <0> d          -1.490  -0.892   0.012  0.00  0.00    -0.062 Cl
ATOM     10  H2  <0> d          -0.954   1.899   0.026  0.00  0.00     0.097 H 
ENDROOT
BRANCH   6  11
ATOM     11  N3  <0> d           3.483  -0.718  -0.035  0.00  0.00    -0.233 N 
ATOM     12  H3  <0> d           4.333  -0.250  -0.041  0.00  0.00     0.174 HD
ATOM     13  H4  <0> d           3.463  -1.687  -0.040  0.00  0.00     0.174 HD
ENDBRANCH   6  11
TORSDOF 1
