REMARK  7 active torsions:
REMARK  status: ('A' for Active; 'I' for Inactive)
REMARK    1  A    between atoms: C1_1  and  C2_2 
REMARK    2  A    between atoms: C2_2  and  C3_3 
REMARK    3  A    between atoms: C2_2  and  C4_4 
REMARK    4  A    between atoms: C4_4  and  C5_5 
REMARK    5  A    between atoms: C5_5  and  C6_7 
REMARK    6  A    between atoms: C6_7  and  C7_8 
REMARK    7  A    between atoms: C6_7  and  C8_9 
ROOT
ATOM      1  C4  <0> d           2.471   0.869  -0.765  0.00  0.00    -0.007 C 
ATOM      2  H8  <0> d           2.558  -0.059  -0.403  0.00  0.00     0.044 H 
ATOM      3  H9  <0> d           2.199   0.824  -1.820  0.00  0.00     0.044 H 
ENDROOT
BRANCH   1   4
ATOM      4  C2  <0> d           3.804   1.604  -0.614  0.00  0.00    -0.055 C 
ATOM      5  H4  <0> d           3.685   2.641  -0.926  0.00  0.00     0.039 H 
BRANCH   4   6
ATOM      6  C1  <0> d           4.247   1.560   0.850  0.00  0.00    -0.073 C 
ATOM      7  H1  <0> d           4.367   0.522   1.162  0.00  0.00     0.028 H 
ATOM      8  H2  <0> d           5.197   2.083   0.958  0.00  0.00     0.028 H 
ATOM      9  H3  <0> d           3.494   2.042   1.472  0.00  0.00     0.028 H 
ENDBRANCH   4   6
BRANCH   4  10
ATOM     10  C3  <0> d           4.862   0.926  -1.488  0.00  0.00    -0.073 C 
ATOM     11  H5  <0> d           4.546   0.958  -2.530  0.00  0.00     0.028 H 
ATOM     12  H6  <0> d           5.812   1.450  -1.380  0.00  0.00     0.028 H 
ATOM     13  H7  <0> d           4.981  -0.111  -1.175  0.00  0.00     0.028 H 
ENDBRANCH   4  10
ENDBRANCH   1   4
BRANCH   1  14
ATOM     14  C5  <0> d           1.401   1.607  -0.003  0.00  0.00     0.130 C 
ATOM     15  O1  <0> d           1.677   2.617   0.600  0.00  0.00    -0.298 OA
BRANCH  14  16
ATOM     16  C6  <0> d          -0.013   1.086   0.008  0.00  0.00    -0.003 C 
ATOM     17  H10 <0> d           0.001   0.086   0.003  0.00  0.00     0.050 H 
BRANCH  16  18
ATOM     18  C7  <0> d          -0.753   1.593  -1.232  0.00  0.00    -0.067 C 
ATOM     19  H11 <0> d          -0.242   1.241  -2.128  0.00  0.00     0.028 H 
ATOM     20  H12 <0> d          -1.775   1.215  -1.224  0.00  0.00     0.028 H 
ATOM     21  H13 <0> d          -0.767   2.683  -1.226  0.00  0.00     0.028 H 
ENDBRANCH  16  18
BRANCH  16  22
ATOM     22  C8  <0> d          -0.729   1.579   1.267  0.00  0.00    -0.067 C 
ATOM     23  H14 <0> d          -0.744   2.669   1.273  0.00  0.00     0.028 H 
ATOM     24  H15 <0> d          -1.751   1.202   1.275  0.00  0.00     0.028 H 
ATOM     25  H16 <0> d          -0.202   1.218   2.150  0.00  0.00     0.028 H 
ENDBRANCH  16  22
ENDBRANCH  14  16
ENDBRANCH   1  14
TORSDOF 7
