REMARK  3 active torsions:
REMARK  status: ('A' for Active; 'I' for Inactive)
REMARK    1  A    between atoms: C1_1  and  C2_2 
REMARK    2  A    between atoms: C1_1  and  C3_4 
REMARK    3  A    between atoms: C2_2  and  O1_3 
ROOT
ATOM      1  C1  <0> d           1.755  -1.812  -0.024  0.00  0.00     0.015 C 
ATOM      2  H1  <0> d           2.720  -1.861   0.480  0.00  0.00     0.048 H 
ATOM      3  H2  <0> d           1.041  -2.453   0.493  0.00  0.00     0.048 H 
ENDROOT
BRANCH   1   4
ATOM      4  C2  <0> d           1.911  -2.285  -1.471  0.00  0.00     0.023 C 
ATOM      5  H3  <0> d           0.946  -2.235  -1.975  0.00  0.00     0.074 H 
ATOM      6  H4  <0> d           2.624  -1.643  -1.988  0.00  0.00     0.074 H 
BRANCH   4   7
ATOM      7  O1  <0> d           2.386  -3.632  -1.483  0.00  0.00    -0.400 OA
ATOM      8  H5  <0> d           2.508  -3.999  -2.369  0.00  0.00     0.209 HD
ENDBRANCH   4   7
ENDBRANCH   1   4
BRANCH   1   9
ATOM      9  C3  <0> d           1.254  -0.390  -0.012  0.00  0.00     0.175 A 
ATOM     10  N3  <0> d           2.001   0.715  -0.013  0.00  0.00    -0.112 NA
ATOM     11  N2  <0> d           1.196   1.723  -0.000  0.00  0.00    -0.021 NA
ATOM     12  N4  <0> d          -0.013   1.283   0.009  0.00  0.00    -0.021 NA
ATOM     13  N1  <0> d           0.002  -0.004   0.002  0.00  0.00    -0.112 NA
ENDBRANCH   1   9
TORSDOF 3
