REMARK  3 active torsions:
REMARK  status: ('A' for Active; 'I' for Inactive)
REMARK    1  A    between atoms: C1_1  and  N1_2 
REMARK    2  A    between atoms: C3_6  and  S1_7 
REMARK    3  A    between atoms: S1_7  and  C4_8 
ROOT
ATOM      1  N1  <0> d           0.002  -0.004   0.002  0.00  0.00    -0.322 N 
ATOM      2  C2  <0> d           0.009  -0.824  -1.093  0.00  0.00     0.089 A 
ATOM      3  N2  <0> d           0.028  -2.052  -0.657  0.00  0.00    -0.143 NA
ATOM      4  N3  <0> d           0.034  -2.064   0.628  0.00  0.00    -0.123 NA
ATOM      5  C3  <0> d           0.024  -0.834   1.086  0.00  0.00     0.191 A 
ATOM      6  H4  <0> d          -0.000  -0.511  -2.126  0.00  0.00     0.146 H 
ENDROOT
BRANCH   5   7
ATOM      7  S1  <0> d           0.033  -0.347   2.779  0.00  0.00    -0.085 SA
BRANCH   7   8
ATOM      8  C4  <0> d           0.063  -1.917   3.688  0.00  0.00    -0.002 A 
ATOM      9  C6  <0> d          -0.042  -1.852   5.213  0.00  0.00    -0.052 A 
ATOM     10  C5  <0> d           1.291  -2.209   4.552  0.00  0.00    -0.052 A 
ATOM     11  H8  <0> d          -0.129  -0.867   5.670  0.00  0.00     0.034 H 
ATOM     12  H9  <0> d          -0.586  -2.653   5.714  0.00  0.00     0.034 H 
ATOM     13  H6  <0> d           1.624  -3.245   4.619  0.00  0.00     0.034 H 
ATOM     14  H7  <0> d           2.081  -1.458   4.575  0.00  0.00     0.034 H 
ATOM     15  H5  <0> d          -0.412  -2.759   3.186  0.00  0.00     0.057 H 
ENDBRANCH   7   8
ENDBRANCH   5   7
BRANCH   1  16
ATOM     16  C1  <0> d          -0.018   1.461   0.010  0.00  0.00    -0.011 C 
ATOM     17  H1  <0> d           1.005   1.838   0.002  0.00  0.00     0.057 H 
ATOM     18  H2  <0> d          -0.545   1.822  -0.873  0.00  0.00     0.057 H 
ATOM     19  H3  <0> d          -0.528   1.812   0.907  0.00  0.00     0.057 H 
ENDBRANCH   1  16
TORSDOF 3
