REMARK  0 active torsions:
REMARK  status: ('A' for Active; 'I' for Inactive)
ROOT
ATOM      1  C1  <0> d           1.199  -0.699  -0.013  0.00  0.00    -0.045 A 
ATOM      2  C2  <0> d           0.002  -0.004   0.002  0.00  0.00     0.005 A 
ATOM      3  N1  <0> d          -0.016   1.312   0.009  0.00  0.00    -0.250 NA
ATOM      4  C3  <0> d           1.105   2.024   0.002  0.00  0.00     0.137 A 
ATOM      5  C4  <0> d           2.347   1.391  -0.013  0.00  0.00    -0.024 A 
ATOM      6  C5  <0> d           2.395   0.005  -0.021  0.00  0.00     0.038 A 
ATOM      7 Cl1  <0> d           3.917  -0.830  -0.040  0.00  0.00    -0.084 Cl
ATOM      8  C6  <0> d           1.038   3.454   0.010  0.00  0.00     0.119 C 
ATOM      9  N2  <0> d           0.985   4.589   0.016  0.00  0.00    -0.190 NA
ATOM     10  H1  <0> d           1.202  -1.779  -0.019  0.00  0.00     0.088 H 
ATOM     11  H2  <0> d          -0.930  -0.549   0.008  0.00  0.00     0.114 H 
ATOM     12  H3  <0> d           3.258   1.971  -0.019  0.00  0.00     0.090 H 
ENDROOT
TORSDOF 0
