REMARK  6 active torsions:
REMARK  status: ('A' for Active; 'I' for Inactive)
REMARK    1  A    between atoms: C1_1  and  C2_2 
REMARK    2  A    between atoms: C2_2  and  C3_3 
REMARK    3  A    between atoms: C2_2  and  O1_4 
REMARK    4  A    between atoms: O1_4  and  C4_5 
REMARK    5  A    between atoms: C4_5  and  C5_7 
REMARK    6  A    between atoms: C4_5  and  C6_8 
ROOT
ATOM      1  C2  <0> d          -3.589   1.466  -0.626  0.00  0.00     0.033 C 
ATOM      2  H5  <0> d          -3.655   2.549  -0.521  0.00  0.00     0.082 H 
ENDROOT
BRANCH   1   3
ATOM      3  C1  <0> d          -3.542   1.098  -2.110  0.00  0.00    -0.052 C 
ATOM      4  H2  <0> d          -2.670   1.561  -2.572  0.00  0.00     0.030 H 
ATOM      5  H3  <0> d          -3.476   0.015  -2.214  0.00  0.00     0.030 H 
ATOM      6  H4  <0> d          -4.447   1.456  -2.602  0.00  0.00     0.030 H 
ENDBRANCH   1   3
BRANCH   1   7
ATOM      7  C3  <0> d          -4.813   0.815   0.022  0.00  0.00    -0.052 C 
ATOM      8  H6  <0> d          -4.846   1.077   1.080  0.00  0.00     0.030 H 
ATOM      9  H7  <0> d          -5.718   1.173  -0.469  0.00  0.00     0.030 H 
ATOM     10  H8  <0> d          -4.747  -0.268  -0.082  0.00  0.00     0.030 H 
ENDBRANCH   1   7
BRANCH   1  11
ATOM     11  O1  <0> d          -2.403   0.997   0.019  0.00  0.00    -0.371 OA
BRANCH  11  12
ATOM     12  C4  <0> d          -1.329   1.940   0.019  0.00  0.00     0.119 C 
ATOM     13  H1  <0> d          -1.400   2.570  -0.867  0.00  0.00     0.099 H 
BRANCH  12  14
ATOM     14  C5  <0> d          -1.417   2.811   1.273  0.00  0.00    -0.043 C 
ATOM     15  H9  <0> d          -0.598   3.531   1.273  0.00  0.00     0.031 H 
ATOM     16  H10 <0> d          -2.368   3.344   1.281  0.00  0.00     0.031 H 
ATOM     17  H11 <0> d          -1.346   2.181   2.160  0.00  0.00     0.031 H 
ENDBRANCH  12  14
BRANCH  12  18
ATOM     18  C6  <0> d          -0.014   1.204   0.009  0.00  0.00     0.202 C 
ATOM     19  O2  <0> d           0.002  -0.004   0.002  0.00  0.00    -0.646 OA
ATOM     20  O3  <0> d           1.139   1.891   0.001  0.00  0.00    -0.646 OA
ENDBRANCH  12  18
ENDBRANCH  11  12
ENDBRANCH   1  11
TORSDOF 6
