REMARK  1 active torsions:
REMARK  status: ('A' for Active; 'I' for Inactive)
REMARK    1  A    between atoms: C5_6  and  C6_7 
ROOT
ATOM      1  C1  <0> d          -1.036  -2.286  -0.007  0.00  0.00    -0.054 A 
ATOM      2  C2  <0> d          -2.165  -3.078   0.004  0.00  0.00     0.003 A 
ATOM      3  N1  <0> d          -3.370  -2.539   0.019  0.00  0.00    -0.273 NA
ATOM      4  C3  <0> d          -3.552  -1.233   0.028  0.00  0.00     0.003 A 
ATOM      5  C4  <0> d          -2.478  -0.368   0.023  0.00  0.00    -0.054 A 
ATOM      6  C5  <0> d          -1.183  -0.895   0.008  0.00  0.00    -0.003 A 
ATOM      7  H2  <0> d          -0.053  -2.733  -0.024  0.00  0.00     0.087 H 
ATOM      8  H3  <0> d          -2.062  -4.153  -0.003  0.00  0.00     0.114 H 
ATOM      9  H4  <0> d          -4.556  -0.835   0.039  0.00  0.00     0.114 H 
ATOM     10  H5  <0> d          -2.635   0.701   0.031  0.00  0.00     0.087 H 
ENDROOT
BRANCH   6  11
ATOM     11  C6  <0> d           0.002  -0.004   0.002  0.00  0.00     0.083 A 
ATOM     12  N3  <0> d          -0.016   1.345   0.009  0.00  0.00    -0.242 NA
ATOM     13  C8  <0> d           1.209   1.789   0.000  0.00  0.00     0.064 A 
ATOM     14  N2  <0> d           2.058   0.738  -0.014  0.00  0.00    -0.358 N 
ATOM     15  H7  <0> d           1.498   2.830   0.003  0.00  0.00     0.143 H 
ATOM     16  C7  <0> d           1.303  -0.399  -0.013  0.00  0.00     0.006 A 
ATOM     17  H1  <0> d           3.156   0.669  -0.024  0.00  0.00     0.166 HD
ATOM     18  H6  <0> d           1.668  -1.416  -0.022  0.00  0.00     0.115 H 
ENDBRANCH   6  11
TORSDOF 1
