REMARK  5 active torsions:
REMARK  status: ('A' for Active; 'I' for Inactive)
REMARK    1  A    between atoms: C1_1  and  C2_2 
REMARK    2  A    between atoms: C2_2  and  C3_3 
REMARK    3  A    between atoms: C2_2  and  C4_4 
REMARK    4  A    between atoms: C4_4  and  N1_5 
REMARK    5  A    between atoms: N1_5  and  C5_6 
ROOT
ATOM      1  C4  <0> d           0.742  -0.511   1.242  0.00  0.00    -0.002 C 
ATOM      2  H8  <0> d           0.835  -1.596   1.191  0.00  0.00     0.064 H 
ATOM      3  H9  <0> d           1.735  -0.063   1.280  0.00  0.00     0.064 H 
ENDROOT
BRANCH   1   4
ATOM      4  C2  <0> d           0.002  -0.004   0.002  0.00  0.00    -0.046 C 
ATOM      5  H4  <0> d          -1.020  -0.381   0.010  0.00  0.00     0.041 H 
BRANCH   4   6
ATOM      6  C1  <0> d          -0.019   1.526   0.010  0.00  0.00    -0.072 C 
ATOM      7  H1  <0> d           1.004   1.903   0.003  0.00  0.00     0.028 H 
ATOM      8  H2  <0> d          -0.546   1.887  -0.873  0.00  0.00     0.028 H 
ATOM      9  H3  <0> d          -0.529   1.877   0.907  0.00  0.00     0.028 H 
ENDBRANCH   4   6
BRANCH   4  10
ATOM     10  C3  <0> d           0.718  -0.497  -1.257  0.00  0.00    -0.072 C 
ATOM     11  H5  <0> d           1.741  -0.120  -1.264  0.00  0.00     0.028 H 
ATOM     12  H6  <0> d           0.733  -1.587  -1.263  0.00  0.00     0.028 H 
ATOM     13  H7  <0> d           0.191  -0.136  -2.140  0.00  0.00     0.028 H 
ENDBRANCH   4  10
ENDBRANCH   1   4
BRANCH   1  14
ATOM     14  N1  <0> d          -0.008  -0.140   2.444  0.00  0.00    -0.354 N 
ATOM     15  H10 <0> d          -0.840   0.353   2.364  0.00  0.00     0.163 HD
BRANCH  14  16
ATOM     16  C5  <0> d           0.468  -0.493   3.692  0.00  0.00     0.246 A 
ATOM     17  O1  <0> d          -0.123  -0.214   4.864  0.00  0.00    -0.289 OA
ATOM     18  C7  <0> d           0.648  -0.727   5.847  0.00  0.00     0.039 A 
ATOM     19  C6  <0> d           1.706  -1.307   5.261  0.00  0.00     0.028 A 
ATOM     20  H12 <0> d           0.452  -0.677   6.908  0.00  0.00     0.126 H 
ATOM     21  N2  <0> d           1.576  -1.151   3.929  0.00  0.00    -0.219 NA
ATOM     22  H11 <0> d           2.518  -1.809   5.767  0.00  0.00     0.117 H 
ENDBRANCH  14  16
ENDBRANCH   1  14
TORSDOF 5
