REMARK  1 active torsions:
REMARK  status: ('A' for Active; 'I' for Inactive)
REMARK    1  A    between atoms: C6_6  and  C7_7 
REMARK       I    between atoms: C7_7  and  N1_9 
ROOT
ATOM      1  C1  <0> d          -0.017   1.392   0.010  0.00  0.00    -0.065 A 
ATOM      2  C2  <0> d           1.169   2.095   0.002  0.00  0.00    -0.045 A 
ATOM      3  C3  <0> d           2.379   1.418  -0.013  0.00  0.00     0.116 A 
ATOM      4  C4  <0> d           2.403   0.032  -0.021  0.00  0.00    -0.045 A 
ATOM      5  C5  <0> d           1.224  -0.681  -0.014  0.00  0.00    -0.065 A 
ATOM      6  C6  <0> d           0.002  -0.004   0.002  0.00  0.00     0.032 A 
ATOM      7  F1  <0> d           3.538   2.112  -0.020  0.00  0.00    -0.206 F 
ATOM      8  H1  <0> d          -0.959   1.920   0.026  0.00  0.00     0.085 H 
ATOM      9  H2  <0> d           1.155   3.175   0.008  0.00  0.00     0.088 H 
ATOM     10  H3  <0> d           3.349  -0.490  -0.034  0.00  0.00     0.088 H 
ATOM     11  H4  <0> d           1.244  -1.761  -0.020  0.00  0.00     0.085 H 
ENDROOT
BRANCH   6  12
ATOM     12  C7  <0> d          -1.266  -0.763   0.011  0.00  0.00     0.249 C 
ATOM     13  O1  <0> d          -2.328  -0.171   0.024  0.00  0.00    -0.268 OA
ATOM     14  N1  <0> d          -1.244  -2.110   0.003  0.00  0.00    -0.366 N 
ATOM     15  H5  <0> d          -0.397  -2.582  -0.008  0.00  0.00     0.159 HD
ATOM     16  H6  <0> d          -2.077  -2.608   0.009  0.00  0.00     0.159 HD
ENDBRANCH   6  12
TORSDOF 1
