REMARK  5 active torsions:
REMARK  status: ('A' for Active; 'I' for Inactive)
REMARK    1  A    between atoms: C1_1  and  C2_2 
REMARK    2  A    between atoms: C1_1  and  C3_4 
REMARK    3  A    between atoms: C2_2  and  O1_3 
REMARK    4  A    between atoms: C3_4  and  C4_6 
REMARK    5  A    between atoms: C3_4  and  O2_10 
ROOT
ATOM      1  C1  <0> d          -0.013   1.086   0.008  0.00  0.00    -0.013 C 
ATOM      2  H2  <0> d           0.002  -0.004   0.002  0.00  0.00     0.040 H 
ATOM      3  H3  <0> d           1.010   1.463   0.000  0.00  0.00     0.040 H 
ENDROOT
BRANCH   1   4
ATOM      4  C2  <0> d          -0.753   1.593  -1.232  0.00  0.00     0.019 C 
ATOM      5  H4  <0> d          -1.775   1.215  -1.224  0.00  0.00     0.074 H 
ATOM      6  H5  <0> d          -0.767   2.683  -1.226  0.00  0.00     0.074 H 
BRANCH   4   7
ATOM      7  O1  <0> d          -0.084   1.132  -2.407  0.00  0.00    -0.401 OA
ATOM      8  H6  <0> d          -0.499   1.416  -3.233  0.00  0.00     0.209 HD
ENDBRANCH   4   7
ENDBRANCH   1   4
BRANCH   1   9
ATOM      9  C3  <0> d          -0.729   1.579   1.267  0.00  0.00     0.131 C 
ATOM     10  H1  <0> d          -1.776   1.277   1.232  0.00  0.00     0.097 H 
BRANCH   9  11
ATOM     11  C4  <0> d          -0.064   0.971   2.503  0.00  0.00     0.413 C 
ATOM     12  F1  <0> d           1.280   1.359   2.549  0.00  0.00    -0.168 F 
ATOM     13  F2  <0> d          -0.719   1.423   3.654  0.00  0.00    -0.168 F 
ATOM     14  F3  <0> d          -0.144  -0.424   2.438  0.00  0.00    -0.168 F 
ENDBRANCH   9  11
BRANCH   9  15
ATOM     15  O2  <0> d          -0.647   3.004   1.334  0.00  0.00    -0.387 OA
ATOM     16  H7  <0> d           0.258   3.345   1.368  0.00  0.00     0.210 HD
ENDBRANCH   9  15
ENDBRANCH   1   9
TORSDOF 5
