REMARK  5 active torsions:
REMARK  status: ('A' for Active; 'I' for Inactive)
REMARK    1  A    between atoms: C1_1  and  C2_2 
REMARK    2  A    between atoms: C2_2  and  C3_4 
REMARK    3  A    between atoms: C2_2  and  O1_12 
REMARK    4  A    between atoms: C3_4  and  N1_5 
REMARK    5  A    between atoms: N1_5  and  C4_6 
ROOT
ATOM      1  N1  <0> d           1.397   3.520   0.008  0.00  0.00    -0.387 N 
ATOM      2  H7  <0> d           0.550   3.994   0.018  0.00  0.00     0.159 HD
ENDROOT
BRANCH   1   3
ATOM      3  C3  <0> d           1.417   2.055  -0.000  0.00  0.00     0.016 C 
ATOM      4  H5  <0> d           1.944   1.694   0.883  0.00  0.00     0.067 H 
ATOM      5  H6  <0> d           1.927   1.704  -0.897  0.00  0.00     0.067 H 
BRANCH   3   6
ATOM      6  C2  <0> d          -0.019   1.526   0.010  0.00  0.00     0.047 C 
ATOM      7  H1  <0> d          -0.546   1.887  -0.873  0.00  0.00     0.084 H 
BRANCH   6   8
ATOM      8  C1  <0> d           0.002  -0.004   0.002  0.00  0.00    -0.051 C 
ATOM      9  H2  <0> d           0.512  -0.356  -0.895  0.00  0.00     0.030 H 
ATOM     10  H3  <0> d           0.529  -0.365   0.885  0.00  0.00     0.030 H 
ATOM     11  H4  <0> d          -1.020  -0.381   0.010  0.00  0.00     0.030 H 
ENDBRANCH   6   8
BRANCH   6  12
ATOM     12  O1  <0> d          -0.688   1.987   1.186  0.00  0.00    -0.394 OA
ATOM     13  H13 <0> d          -1.605   1.688   1.259  0.00  0.00     0.210 HD
ENDBRANCH   6  12
ENDBRANCH   3   6
ENDBRANCH   1   3
BRANCH   1  14
ATOM     14  C4  <0> d           2.597   4.235   0.000  0.00  0.00     0.028 A 
ATOM     15  C9  <0> d           2.580   5.624   0.008  0.00  0.00    -0.058 A 
ATOM     16  C8  <0> d           3.768   6.328   0.001  0.00  0.00    -0.081 A 
ATOM     17  H12 <0> d           1.638   6.153   0.019  0.00  0.00     0.086 H 
ATOM     18  C7  <0> d           4.974   5.651  -0.014  0.00  0.00    -0.083 A 
ATOM     19  H11 <0> d           3.756   7.407   0.006  0.00  0.00     0.083 H 
ATOM     20  C6  <0> d           4.995   4.268  -0.022  0.00  0.00    -0.081 A 
ATOM     21  H10 <0> d           5.902   6.204  -0.020  0.00  0.00     0.083 H 
ATOM     22  C5  <0> d           3.810   3.558  -0.009  0.00  0.00    -0.058 A 
ATOM     23  H9  <0> d           5.938   3.743  -0.033  0.00  0.00     0.083 H 
ATOM     24  H8  <0> d           3.827   2.478  -0.011  0.00  0.00     0.086 H 
ENDBRANCH   1  14
TORSDOF 5
