REMARK  1 active torsions:
REMARK  status: ('A' for Active; 'I' for Inactive)
REMARK    1  A    between atoms: C4_4  and  C7_7 
ROOT
ATOM      1  C1  <0> d          -3.497   3.741   0.040  0.00  0.00    -0.083 A 
ATOM      2  C2  <0> d          -2.245   4.330   0.037  0.00  0.00    -0.082 A 
ATOM      3  C3  <0> d          -1.111   3.546   0.027  0.00  0.00    -0.069 A 
ATOM      4  C4  <0> d          -1.227   2.155   0.020  0.00  0.00     0.017 A 
ATOM      5  C5  <0> d          -2.493   1.567   0.017  0.00  0.00    -0.069 A 
ATOM      6  C6  <0> d          -3.620   2.363   0.033  0.00  0.00    -0.082 A 
ATOM      7  H1  <0> d          -4.382   4.360   0.049  0.00  0.00     0.083 H 
ATOM      8  H2  <0> d          -2.156   5.406   0.042  0.00  0.00     0.083 H 
ATOM      9  H3  <0> d          -0.134   4.007   0.025  0.00  0.00     0.085 H 
ATOM     10  H4  <0> d          -2.591   0.491   0.007  0.00  0.00     0.085 H 
ATOM     11  H5  <0> d          -4.600   1.909   0.036  0.00  0.00     0.083 H 
ENDROOT
BRANCH   4  12
ATOM     12  C7  <0> d          -0.016   1.308   0.009  0.00  0.00     0.179 A 
ATOM     13  O1  <0> d           1.253   1.753  -0.001  0.00  0.00    -0.302 OA
ATOM     14  C9  <0> d           2.064   0.677  -0.014  0.00  0.00     0.038 A 
ATOM     15  C8  <0> d           1.279  -0.416  -0.012  0.00  0.00     0.026 A 
ATOM     16  H7  <0> d           3.144   0.689  -0.024  0.00  0.00     0.125 H 
ATOM     17  N1  <0> d           0.002  -0.004   0.002  0.00  0.00    -0.234 NA
ATOM     18  H6  <0> d           1.616  -1.442  -0.021  0.00  0.00     0.117 H 
ENDBRANCH   4  12
TORSDOF 1
