REMARK  0 active torsions:
REMARK  status: ('A' for Active; 'I' for Inactive)
ROOT
ATOM      1  C1  <0> d           1.159   1.776   0.001  0.00  0.00    -0.079 A 
ATOM      2  C2  <0> d          -0.013   1.076   0.008  0.00  0.00    -0.069 A 
ATOM      3  C3  <0> d          -1.233   1.761   0.018  0.00  0.00     0.014 A 
ATOM      4  C4  <0> d          -2.630   1.340   0.036  0.00  0.00     0.034 A 
ATOM      5  N1  <0> d          -3.369   2.413   0.049  0.00  0.00    -0.186 NA
ATOM      6  N2  <0> d          -2.560   3.553   0.046  0.00  0.00    -0.275 N 
ATOM      7  H1  <0> d          -2.888   4.498   0.054  0.00  0.00     0.189 HD
ATOM      8  C5  <0> d          -1.244   3.168   0.031  0.00  0.00     0.100 A 
ATOM      9  C6  <0> d          -0.035   3.863   0.023  0.00  0.00     0.145 A 
ATOM     10  C7  <0> d           1.154   3.165   0.008  0.00  0.00    -0.043 A 
ATOM     11  F1  <0> d          -0.028   5.214   0.029  0.00  0.00    -0.204 F 
ATOM     12  H2  <0> d           2.099   1.245  -0.011  0.00  0.00     0.083 H 
ATOM     13  H3  <0> d           0.002  -0.004   0.002  0.00  0.00     0.085 H 
ATOM     14  H4  <0> d          -2.988   0.321   0.034  0.00  0.00     0.118 H 
ATOM     15  H5  <0> d           2.090   3.704   0.002  0.00  0.00     0.088 H 
ENDROOT
TORSDOF 0
