REMARK  3 active torsions:
REMARK  status: ('A' for Active; 'I' for Inactive)
REMARK    1  A    between atoms: C3_3  and  N2_9 
REMARK    2  A    between atoms: C4_4  and  O1_8 
REMARK    3  A    between atoms: C6_6  and  N1_7 
ROOT
ATOM      1  C1  <0> d          -0.017   1.384   0.010  0.00  0.00    -0.055 A 
ATOM      2  C2  <0> d           1.170   2.093   0.002  0.00  0.00    -0.053 A 
ATOM      3  C3  <0> d           2.381   1.419  -0.013  0.00  0.00     0.059 A 
ATOM      4  C4  <0> d           2.403   0.026  -0.021  0.00  0.00     0.093 A 
ATOM      5  C5  <0> d           1.214  -0.683  -0.013  0.00  0.00    -0.024 A 
ATOM      6  C6  <0> d           0.002  -0.004   0.002  0.00  0.00     0.028 A 
ATOM      7  H1  <0> d          -0.960   1.910   0.026  0.00  0.00     0.087 H 
ATOM      8  H2  <0> d           1.153   3.173   0.008  0.00  0.00     0.087 H 
ATOM      9  H3  <0> d           1.228  -1.763  -0.019  0.00  0.00     0.091 H 
ENDROOT
BRANCH   3  10
ATOM     10  N2  <0> d           3.585   2.140  -0.022  0.00  0.00    -0.397 N 
ATOM     11  H7  <0> d           3.570   3.110  -0.017  0.00  0.00     0.156 HD
ATOM     12  H8  <0> d           4.433   1.668  -0.033  0.00  0.00     0.156 HD
ENDBRANCH   3  10
BRANCH   4  13
ATOM     13  O1  <0> d           3.590  -0.636  -0.037  0.00  0.00    -0.358 OA
ATOM     14  H6  <0> d           3.943  -0.833   0.842  0.00  0.00     0.217 HD
ENDBRANCH   4  13
BRANCH   6  15
ATOM     15  N1  <0> d          -1.201  -0.720   0.010  0.00  0.00    -0.399 N 
ATOM     16  H4  <0> d          -2.047  -0.246   0.020  0.00  0.00     0.156 HD
ATOM     17  H5  <0> d          -1.188  -1.690   0.004  0.00  0.00     0.156 HD
ENDBRANCH   6  15
TORSDOF 3
