REMARK  2 active torsions:
REMARK  status: ('A' for Active; 'I' for Inactive)
REMARK    1  A    between atoms: C1_1  and  O1_2 
REMARK    2  A    between atoms: O1_2  and  C2_3 
ROOT
ATOM      1  C2  <0> d           0.605  -0.606  -1.054  0.00  0.00     0.232 A 
ATOM      2  N1  <0> d           1.191  -0.064  -2.101  0.00  0.00    -0.114 NA
ATOM      3  N2  <0> d           1.746  -0.868  -3.069  0.00  0.00    -0.111 NA
ATOM      4  C3  <0> d           1.689  -2.179  -2.945  0.00  0.00     0.266 A 
ATOM      5  S1  <0> d           0.822  -2.346  -1.392  0.00  0.00     0.007 SA
ATOM      6  O2  <0> d           2.166  -3.142  -3.772  0.00  0.00    -0.160 OA
ENDROOT
BRANCH   1   7
ATOM      7  O1  <0> d           0.002  -0.004   0.002  0.00  0.00    -0.333 OA
BRANCH   7   8
ATOM      8  C1  <0> d          -0.017   1.425   0.010  0.00  0.00     0.012 C 
ATOM      9  H1  <0> d           1.005   1.802   0.002  0.00  0.00     0.067 H 
ATOM     10  H2  <0> d          -0.544   1.786  -0.873  0.00  0.00     0.067 H 
ATOM     11  H3  <0> d          -0.527   1.776   0.907  0.00  0.00     0.067 H 
ENDBRANCH   7   8
ENDBRANCH   1   7
TORSDOF 2
