REMARK  4 active torsions:
REMARK  status: ('A' for Active; 'I' for Inactive)
REMARK    1  A    between atoms: C1_1  and  C2_2 
REMARK    2  A    between atoms: C2_2  and  N1_3 
REMARK    3  A    between atoms: C3_4  and  C8_9 
REMARK    4  A    between atoms: C6_7  and  C7_8 
ROOT
ATOM      1  N1  <0> d          -0.704   1.998   1.216  0.00  0.00    -0.355 N 
ATOM      2  C3  <0> d          -2.040   2.250   1.323  0.00  0.00     0.007 A 
ATOM      3  C4  <0> d          -2.292   2.663   2.582  0.00  0.00    -0.060 A 
ATOM      4  C5  <0> d          -1.065   2.676   3.274  0.00  0.00    -0.060 A 
ATOM      5  C6  <0> d          -0.111   2.264   2.414  0.00  0.00     0.007 A 
ATOM      6  H6  <0> d          -3.256   2.938   2.983  0.00  0.00     0.086 H 
ATOM      7  H7  <0> d          -0.916   2.962   4.305  0.00  0.00     0.086 H 
ENDROOT
BRANCH   1   8
ATOM      8  C2  <0> d          -0.019   1.526   0.010  0.00  0.00    -0.004 C 
ATOM      9  H4  <0> d           1.004   1.903   0.003  0.00  0.00     0.064 H 
ATOM     10  H5  <0> d          -0.546   1.887  -0.873  0.00  0.00     0.064 H 
BRANCH   8  11
ATOM     11  C1  <0> d           0.002  -0.004   0.002  0.00  0.00    -0.061 C 
ATOM     12  H1  <0> d           0.512  -0.356  -0.895  0.00  0.00     0.029 H 
ATOM     13  H2  <0> d           0.529  -0.365   0.885  0.00  0.00     0.029 H 
ATOM     14  H3  <0> d          -1.020  -0.381   0.010  0.00  0.00     0.029 H 
ENDBRANCH   8  11
ENDBRANCH   1   8
BRANCH   5  15
ATOM     15  C7  <0> d           1.357   2.123   2.724  0.00  0.00    -0.037 C 
ATOM     16  H8  <0> d           1.866   3.061   2.506  0.00  0.00     0.035 H 
ATOM     17  H9  <0> d           1.483   1.877   3.779  0.00  0.00     0.035 H 
ATOM     18  H10 <0> d           1.782   1.327   2.113  0.00  0.00     0.035 H 
ENDBRANCH   5  15
BRANCH   2  19
ATOM     19  C8  <0> d          -3.060   2.091   0.225  0.00  0.00    -0.037 C 
ATOM     20  H11 <0> d          -3.466   1.080   0.249  0.00  0.00     0.035 H 
ATOM     21  H12 <0> d          -3.866   2.810   0.370  0.00  0.00     0.035 H 
ATOM     22  H13 <0> d          -2.585   2.268  -0.741  0.00  0.00     0.035 H 
ENDBRANCH   2  19
TORSDOF 4
