REMARK  5 active torsions:
REMARK  status: ('A' for Active; 'I' for Inactive)
REMARK    1  A    between atoms: C1_1  and  C2_2 
REMARK    2  A    between atoms: C3_3  and  N3_10 
REMARK    3  A    between atoms: C4_4  and  O1_8 
REMARK    4  A    between atoms: N1_5  and  C5_7 
REMARK    5  A    between atoms: O1_8  and  C6_9 
ROOT
ATOM      1  C2  <0> d          -0.039  -0.014   0.023  0.00  0.00     0.081 A 
ATOM      2  C3  <0> d          -0.038  -0.817  -1.124  0.00  0.00     0.105 A 
ATOM      3  C4  <0> d           0.041  -2.116  -0.723  0.00  0.00     0.189 A 
ATOM      4  N1  <0> d           0.088  -2.122   0.636  0.00  0.00    -0.251 N 
ATOM      5  N2  <0> d           0.042  -0.792   1.073  0.00  0.00    -0.173 NA
ENDROOT
BRANCH   3   6
ATOM      6  O1  <0> d           0.067  -3.207  -1.533  0.00  0.00    -0.338 OA
BRANCH   6   7
ATOM      7  C6  <0> d           1.353  -3.703  -1.911  0.00  0.00     0.012 C 
ATOM      8  H7  <0> d           1.878  -4.064  -1.027  0.00  0.00     0.067 H 
ATOM      9  H8  <0> d           1.232  -4.521  -2.622  0.00  0.00     0.067 H 
ATOM     10  H9  <0> d           1.929  -2.902  -2.374  0.00  0.00     0.067 H 
ENDBRANCH   6   7
ENDBRANCH   3   6
BRANCH   2  11
ATOM     11  N3  <0> d          -0.108  -0.361  -2.459  0.00  0.00    -0.394 N 
ATOM     12  H10 <0> d          -0.163   0.590  -2.645  0.00  0.00     0.156 HD
ATOM     13  H11 <0> d          -0.102  -0.998  -3.190  0.00  0.00     0.156 HD
ENDBRANCH   2  11
BRANCH   4  14
ATOM     14  C5  <0> d           0.178  -3.308   1.491  0.00  0.00     0.005 C 
ATOM     15  H4  <0> d           1.222  -3.506   1.731  0.00  0.00     0.059 H 
ATOM     16  H5  <0> d          -0.380  -3.135   2.412  0.00  0.00     0.059 H 
ATOM     17  H6  <0> d          -0.244  -4.166   0.968  0.00  0.00     0.059 H 
ENDBRANCH   4  14
BRANCH   1  18
ATOM     18  C1  <0> d          -0.112   1.491   0.046  0.00  0.00    -0.032 C 
ATOM     19  H1  <0> d           0.895   1.905   0.011  0.00  0.00     0.035 H 
ATOM     20  H2  <0> d          -0.679   1.840  -0.818  0.00  0.00     0.035 H 
ATOM     21  H3  <0> d          -0.607   1.817   0.960  0.00  0.00     0.035 H 
ENDBRANCH   1  18
TORSDOF 5
