REMARK  8 active torsions:
REMARK  status: ('A' for Active; 'I' for Inactive)
REMARK    1  A    between atoms: C1_1  and  C2_2 
REMARK    2  A    between atoms: C2_2  and  C3_3 
REMARK    3  A    between atoms: C3_3  and  C4_4 
REMARK    4  A    between atoms: C3_3  and  C6_6 
REMARK    5  A    between atoms: C3_3  and  C7_8 
REMARK    6  A    between atoms: C4_4  and  C5_5 
REMARK    7  A    between atoms: C6_6  and  O1_7 
REMARK    8  A    between atoms: C7_8  and  O2_9 
ROOT
ATOM      1  C3  <0> d          -0.019   1.526   0.010  0.00  0.00     0.002 C 
ENDROOT
BRANCH   1   2
ATOM      2  C2  <0> d          -0.759   2.033  -1.229  0.00  0.00    -0.058 C 
ATOM      3  H4  <0> d          -1.781   1.655  -1.221  0.00  0.00     0.033 H 
ATOM      4  H5  <0> d          -0.773   3.123  -1.223  0.00  0.00     0.033 H 
BRANCH   2   5
ATOM      5  C1  <0> d          -0.043   1.539  -2.488  0.00  0.00    -0.076 C 
ATOM      6  H1  <0> d          -0.028   0.449  -2.494  0.00  0.00     0.027 H 
ATOM      7  H2  <0> d          -0.570   1.900  -3.371  0.00  0.00     0.027 H 
ATOM      8  H3  <0> d           0.980   1.917  -2.496  0.00  0.00     0.027 H 
ENDBRANCH   2   5
ENDBRANCH   1   2
BRANCH   1   9
ATOM      9  C4  <0> d          -0.735   2.019   1.269  0.00  0.00    -0.058 C 
ATOM     10  H6  <0> d          -0.750   3.109   1.275  0.00  0.00     0.033 H 
ATOM     11  H7  <0> d          -1.757   1.642   1.277  0.00  0.00     0.033 H 
BRANCH   9  12
ATOM     12  C5  <0> d           0.005   1.512   2.509  0.00  0.00    -0.076 C 
ATOM     13  H8  <0> d           0.020   0.422   2.503  0.00  0.00     0.027 H 
ATOM     14  H9  <0> d           1.028   1.890   2.501  0.00  0.00     0.027 H 
ATOM     15  H10 <0> d          -0.505   1.864   3.406  0.00  0.00     0.027 H 
ENDBRANCH   9  12
ENDBRANCH   1   9
BRANCH   1  16
ATOM     16  C6  <0> d           0.002  -0.004   0.002  0.00  0.00     0.026 C 
ATOM     17  H11 <0> d           0.512  -0.356  -0.895  0.00  0.00     0.075 H 
ATOM     18  H12 <0> d           0.529  -0.365   0.885  0.00  0.00     0.075 H 
BRANCH  16  19
ATOM     19  O1  <0> d          -1.339  -0.499   0.012  0.00  0.00    -0.400 OA
ATOM     20  H13 <0> d          -1.402  -1.464   0.008  0.00  0.00     0.209 HD
ENDBRANCH  16  19
ENDBRANCH   1  16
BRANCH   1  21
ATOM     21  C7  <0> d           1.417   2.055  -0.000  0.00  0.00     0.026 C 
ATOM     22  H14 <0> d           1.944   1.694   0.883  0.00  0.00     0.075 H 
ATOM     23  H15 <0> d           1.927   1.704  -0.897  0.00  0.00     0.075 H 
BRANCH  21  24
ATOM     24  O2  <0> d           1.397   3.484   0.007  0.00  0.00    -0.400 OA
ATOM     25  H16 <0> d           2.275   3.889   0.001  0.00  0.00     0.209 HD
ENDBRANCH  21  24
ENDBRANCH   1  21
TORSDOF 8
