REMARK  1 active torsions:
REMARK  status: ('A' for Active; 'I' for Inactive)
REMARK    1  A    between atoms: C6_6  and  N1_11 
ROOT
ATOM      1  C1  <0> d          -0.016   1.357   0.009  0.00  0.00    -0.082 A 
ATOM      2  C2  <0> d           1.168   2.091   0.002  0.00  0.00    -0.082 A 
ATOM      3  C3  <0> d           2.378   1.468  -0.013  0.00  0.00    -0.072 A 
ATOM      4  C4  <0> d           2.437   0.063  -0.021  0.00  0.00    -0.024 A 
ATOM      5  C5  <0> d           3.668  -0.613  -0.036  0.00  0.00    -0.047 A 
ATOM      6  C6  <0> d           3.685  -1.990  -0.043  0.00  0.00     0.026 A 
ATOM      7  C7  <0> d           2.490  -2.720  -0.036  0.00  0.00    -0.057 A 
ATOM      8  C8  <0> d           1.287  -2.088  -0.022  0.00  0.00    -0.070 A 
ATOM      9  C9  <0> d           1.232  -0.683  -0.013  0.00  0.00    -0.026 A 
ATOM     10  C10 <0> d           0.002  -0.004   0.002  0.00  0.00    -0.072 A 
ATOM     11  H1  <0> d          -0.963   1.876   0.026  0.00  0.00     0.083 H 
ATOM     12  H2  <0> d           1.126   3.170   0.008  0.00  0.00     0.083 H 
ATOM     13  H3  <0> d           3.288   2.049  -0.019  0.00  0.00     0.084 H 
ATOM     14  H4  <0> d           4.594  -0.057  -0.042  0.00  0.00     0.088 H 
ATOM     15  H5  <0> d           2.525  -3.799  -0.043  0.00  0.00     0.086 H 
ATOM     16  H6  <0> d           0.373  -2.665  -0.017  0.00  0.00     0.084 H 
ATOM     17  H7  <0> d          -0.924  -0.559   0.008  0.00  0.00     0.084 H 
ENDROOT
BRANCH   6  18
ATOM     18  N1  <0> d           4.907  -2.666  -0.058  0.00  0.00    -0.399 N 
ATOM     19  H8  <0> d           5.738  -2.166  -0.063  0.00  0.00     0.156 HD
ATOM     20  H9  <0> d           4.925  -3.636  -0.063  0.00  0.00     0.156 HD
ENDBRANCH   6  18
TORSDOF 1
