REMARK  3 active torsions:
REMARK  status: ('A' for Active; 'I' for Inactive)
REMARK    1  A    between atoms: C2_2  and  C7_10 
REMARK    2  A    between atoms: C3_6  and  C4_7 
REMARK    3  A    between atoms: C7_10  and  O1_11 
ROOT
ATOM      1  C1  <0> d          -0.017   1.395   0.010  0.00  0.00    -0.032 A 
ATOM      2  C2  <0> d           1.265   1.828  -0.000  0.00  0.00     0.053 A 
ATOM      3  N1  <0> d           2.066   0.743  -0.014  0.00  0.00    -0.280 N 
ATOM      4  H1  <0> d           3.036   0.750  -0.023  0.00  0.00     0.189 HD
ATOM      5  N2  <0> d           1.250  -0.396  -0.012  0.00  0.00    -0.179 NA
ATOM      6  C3  <0> d           0.002  -0.004   0.002  0.00  0.00     0.060 A 
ATOM      7  H2  <0> d          -0.899   2.018   0.025  0.00  0.00     0.089 H 
ENDROOT
BRANCH   6   8
ATOM      8  C4  <0> d          -1.206  -0.904   0.008  0.00  0.00    -0.010 A 
ATOM      9  C6  <0> d          -1.831  -1.239   1.364  0.00  0.00    -0.056 A 
ATOM     10  C5  <0> d          -2.547  -0.284   0.407  0.00  0.00    -0.056 A 
ATOM     11  H6  <0> d          -2.255  -2.235   1.492  0.00  0.00     0.034 H 
ATOM     12  H7  <0> d          -1.368  -0.807   2.252  0.00  0.00     0.034 H 
ATOM     13  H4  <0> d          -2.555   0.775   0.664  0.00  0.00     0.034 H 
ATOM     14  H5  <0> d          -3.441  -0.652  -0.096  0.00  0.00     0.034 H 
ATOM     15  H3  <0> d          -1.218  -1.681  -0.756  0.00  0.00     0.049 H 
ENDBRANCH   6   8
BRANCH   2  16
ATOM     16  C7  <0> d           1.716   3.266   0.003  0.00  0.00     0.056 C 
ATOM     17  H8  <0> d           2.324   3.454   0.888  0.00  0.00     0.083 H 
ATOM     18  H9  <0> d           2.307   3.464  -0.891  0.00  0.00     0.083 H 
BRANCH  16  19
ATOM     19  O1  <0> d           0.574   4.124   0.019  0.00  0.00    -0.395 OA
ATOM     20  H10 <0> d           0.789   5.067   0.022  0.00  0.00     0.209 HD
ENDBRANCH  16  19
ENDBRANCH   2  16
TORSDOF 3
