REMARK  2 active torsions:
REMARK  status: ('A' for Active; 'I' for Inactive)
REMARK    1  A    between atoms: C1_1  and  C2_2 
REMARK    2  A    between atoms: C4_6  and  C5_8 
ROOT
ATOM      1  C2  <0> d           0.002  -0.004   0.002  0.00  0.00     0.022 A 
ATOM      2  C3  <0> d           0.008  -0.787  -1.096  0.00  0.00     0.000 A 
ATOM      3  N1  <0> d           0.028  -2.085  -0.662  0.00  0.00    -0.350 N 
ATOM      4  H1  <0> d           0.037  -2.879  -1.219  0.00  0.00     0.166 HD
ATOM      5  C4  <0> d           0.034  -2.050   0.701  0.00  0.00     0.115 A 
ATOM      6  N2  <0> d           0.023  -0.793   1.083  0.00  0.00    -0.344 N 
ATOM      7  H5  <0> d          -0.001  -0.453  -2.123  0.00  0.00     0.114 H 
ATOM      8  H11 <0> d           0.028  -0.485   2.002  0.00  0.00     0.167 HD
ENDROOT
BRANCH   5   9
ATOM      9  C5  <0> d           0.054  -3.227   1.597  0.00  0.00     0.008 A 
ATOM     10  C10 <0> d           0.175  -4.511   1.065  0.00  0.00    -0.069 A 
ATOM     11  C9  <0> d           0.198  -5.604   1.907  0.00  0.00    -0.082 A 
ATOM     12  H10 <0> d           0.255  -4.649  -0.003  0.00  0.00     0.085 H 
ATOM     13  C8  <0> d           0.091  -5.430   3.275  0.00  0.00    -0.083 A 
ATOM     14  H9  <0> d           0.296  -6.598   1.497  0.00  0.00     0.083 H 
ATOM     15  C7  <0> d          -0.035  -4.159   3.809  0.00  0.00    -0.082 A 
ATOM     16  H8  <0> d           0.105  -6.289   3.930  0.00  0.00     0.083 H 
ATOM     17  C6  <0> d          -0.054  -3.058   2.978  0.00  0.00    -0.069 A 
ATOM     18  H7  <0> d          -0.118  -4.030   4.878  0.00  0.00     0.083 H 
ATOM     19  H6  <0> d          -0.152  -2.067   3.396  0.00  0.00     0.085 H 
ENDBRANCH   5   9
BRANCH   1  20
ATOM     20  C1  <0> d          -0.018   1.503   0.010  0.00  0.00    -0.036 C 
ATOM     21  H2  <0> d           1.004   1.880   0.003  0.00  0.00     0.035 H 
ATOM     22  H3  <0> d          -0.545   1.864  -0.873  0.00  0.00     0.035 H 
ATOM     23  H4  <0> d          -0.529   1.854   0.907  0.00  0.00     0.035 H 
ENDBRANCH   1  20
TORSDOF 2
