REMARK  6 active torsions:
REMARK  status: ('A' for Active; 'I' for Inactive)
REMARK    1  A    between atoms: C1_1  and  C2_2 
REMARK    2  A    between atoms: C2_2  and  C3_3 
REMARK    3  A    between atoms: C3_3  and  C4_4 
REMARK    4  A    between atoms: C4_4  and  C5_5 
REMARK    5  A    between atoms: C5_5  and  C6_6 
REMARK    6  A    between atoms: C7_7  and  C8_8 
ROOT
ATOM      1  C4  <0> d           0.778  -3.157   1.227  0.00  0.00    -0.056 C 
ATOM      2  H8  <0> d           1.800  -2.779   1.219  0.00  0.00     0.034 H 
ATOM      3  H9  <0> d           0.268  -2.805   2.124  0.00  0.00     0.034 H 
ENDROOT
BRANCH   1   4
ATOM      4  C3  <0> d           0.799  -4.686   1.219  0.00  0.00    -0.065 C 
ATOM      5  H6  <0> d          -0.224  -5.064   1.226  0.00  0.00     0.033 H 
ATOM      6  H7  <0> d           1.309  -5.038   0.322  0.00  0.00     0.033 H 
BRANCH   4   7
ATOM      7  C2  <0> d           1.539  -5.193   2.458  0.00  0.00    -0.069 C 
ATOM      8  H4  <0> d           2.561  -4.816   2.450  0.00  0.00     0.032 H 
ATOM      9  H5  <0> d           1.028  -4.842   3.355  0.00  0.00     0.032 H 
BRANCH   7  10
ATOM     10  C1  <0> d           1.559  -6.723   2.450  0.00  0.00    -0.077 C 
ATOM     11  H1  <0> d           2.070  -7.075   1.553  0.00  0.00     0.027 H 
ATOM     12  H2  <0> d           2.087  -7.084   3.333  0.00  0.00     0.027 H 
ATOM     13  H3  <0> d           0.537  -7.100   2.457  0.00  0.00     0.027 H 
ENDBRANCH   7  10
ENDBRANCH   4   7
ENDBRANCH   1   4
BRANCH   1  14
ATOM     14  C5  <0> d           0.038  -2.650  -0.013  0.00  0.00    -0.009 C 
ATOM     15  H10 <0> d          -0.985  -3.027  -0.005  0.00  0.00     0.051 H 
ATOM     16  H11 <0> d           0.548  -3.001  -0.909  0.00  0.00     0.051 H 
BRANCH  14  17
ATOM     17  C6  <0> d           0.018  -1.178  -0.004  0.00  0.00    -0.095 C 
ATOM     18  C7  <0> d           0.002  -0.004   0.002  0.00  0.00     0.005 C 
BRANCH  18  19
ATOM     19  C8  <0> d          -0.017   1.428   0.010  0.00  0.00     0.258 C 
ATOM     20  O1  <0> d           1.027   2.050   0.003  0.00  0.00    -0.637 OA
ATOM     21  O2  <0> d          -1.194   2.086   0.019  0.00  0.00    -0.637 OA
ENDBRANCH  18  19
ENDBRANCH  14  17
ENDBRANCH   1  14
TORSDOF 6
