REMARK  4 active torsions:
REMARK  status: ('A' for Active; 'I' for Inactive)
REMARK    1  A    between atoms: C1_1  and  C2_2 
REMARK    2  A    between atoms: C2_2  and  C3_3 
REMARK    3  A    between atoms: C5_5  and  C8_10 
REMARK    4  A    between atoms: C6_6  and  C7_9 
ROOT
ATOM      1  C3  <0> d           0.707  -0.490  -1.238  0.00  0.00     0.009 A 
ATOM      2  C4  <0> d           0.146  -0.659  -2.452  0.00  0.00    -0.054 A 
ATOM      3  C5  <0> d           1.152  -1.125  -3.321  0.00  0.00    -0.038 A 
ATOM      4  C6  <0> d           2.290  -1.223  -2.605  0.00  0.00     0.011 A 
ATOM      5  N1  <0> d           2.025  -0.829  -1.327  0.00  0.00    -0.363 N 
ATOM      6  H1  <0> d           2.667  -0.797  -0.601  0.00  0.00     0.165 HD
ATOM      7  H7  <0> d          -0.886  -0.472  -2.711  0.00  0.00     0.087 H 
ENDROOT
BRANCH   1   8
ATOM      8  C2  <0> d           0.002  -0.004   0.002  0.00  0.00    -0.030 C 
ATOM      9  H5  <0> d           0.529  -0.365   0.885  0.00  0.00     0.041 H 
ATOM     10  H6  <0> d          -1.020  -0.381   0.010  0.00  0.00     0.041 H 
BRANCH   8  11
ATOM     11  C1  <0> d          -0.019   1.526   0.010  0.00  0.00    -0.071 C 
ATOM     12  H2  <0> d           1.004   1.903   0.003  0.00  0.00     0.028 H 
ATOM     13  H3  <0> d          -0.546   1.887  -0.873  0.00  0.00     0.028 H 
ATOM     14  H4  <0> d          -0.529   1.877   0.907  0.00  0.00     0.028 H 
ENDBRANCH   8  11
ENDBRANCH   1   8
BRANCH   4  15
ATOM     15  C7  <0> d           3.627  -1.683  -3.128  0.00  0.00    -0.037 C 
ATOM     16  H8  <0> d           4.186  -0.825  -3.500  0.00  0.00     0.035 H 
ATOM     17  H9  <0> d           4.186  -2.162  -2.325  0.00  0.00     0.035 H 
ATOM     18  H10 <0> d           3.474  -2.395  -3.939  0.00  0.00     0.035 H 
ENDBRANCH   4  15
BRANCH   3  19
ATOM     19  C8  <0> d           0.986  -1.454  -4.782  0.00  0.00    -0.049 C 
ATOM     20  H11 <0> d           1.184  -0.565  -5.380  0.00  0.00     0.033 H 
ATOM     21  H12 <0> d           1.688  -2.241  -5.059  0.00  0.00     0.033 H 
ATOM     22  H13 <0> d          -0.033  -1.796  -4.965  0.00  0.00     0.033 H 
ENDBRANCH   3  19
TORSDOF 4
