REMARK  4 active torsions:
REMARK  status: ('A' for Active; 'I' for Inactive)
REMARK    1  A    between atoms: C1_1  and  C2_2 
REMARK    2  A    between atoms: C2_2  and  S1_3 
REMARK    3  A    between atoms: S1_3  and  C3_4 
REMARK    4  A    between atoms: C6_7  and  N3_10 
ROOT
ATOM      1  C3  <0> d           1.132  -0.693  -0.013  0.00  0.00     0.115 A 
ATOM      2  C4  <0> d           2.356  -0.021  -0.021  0.00  0.00    -0.043 A 
ATOM      3  C5  <0> d           2.336   1.362  -0.013  0.00  0.00    -0.035 A 
ATOM      4  C6  <0> d           1.094   1.999   0.002  0.00  0.00     0.143 A 
ATOM      5  N1  <0> d          -0.015   1.279   0.009  0.00  0.00    -0.132 NA
ATOM      6  N2  <0> d           0.002  -0.004   0.002  0.00  0.00    -0.141 NA
ATOM      7  H6  <0> d           3.289  -0.565  -0.032  0.00  0.00     0.088 H 
ATOM      8  H7  <0> d           3.254   1.931  -0.018  0.00  0.00     0.089 H 
ENDROOT
BRANCH   1   9
ATOM      9  S1  <0> d           1.091  -2.455  -0.021  0.00  0.00    -0.109 SA
BRANCH   9  10
ATOM     10  C2  <0> d          -0.679  -2.853  -0.006  0.00  0.00    -0.021 C 
ATOM     11  H4  <0> d          -1.159  -2.423  -0.897  0.00  0.00     0.049 H 
ATOM     12  H5  <0> d          -1.141  -2.432   0.899  0.00  0.00     0.049 H 
BRANCH  10  13
ATOM     13  C1  <0> d          -0.860  -4.372  -0.012  0.00  0.00    -0.068 C 
ATOM     14  H1  <0> d          -1.933  -4.614  -0.002  0.00  0.00     0.028 H 
ATOM     15  H2  <0> d          -0.379  -4.802   0.880  0.00  0.00     0.028 H 
ATOM     16  H3  <0> d          -0.397  -4.793  -0.916  0.00  0.00     0.028 H 
ENDBRANCH  10  13
ENDBRANCH   9  10
ENDBRANCH   1   9
BRANCH   4  17
ATOM     17  N3  <0> d           1.024   3.391   0.010  0.00  0.00    -0.383 N 
ATOM     18  H8  <0> d           0.045   3.892   0.022  0.00  0.00     0.157 HD
ATOM     19  H9  <0> d           1.947   3.989   0.004  0.00  0.00     0.157 HD
ENDBRANCH   4  17
TORSDOF 4
