REMARK  1 active torsions:
REMARK  status: ('A' for Active; 'I' for Inactive)
REMARK    1  A    between atoms: C1_1  and  C2_2 
ROOT
ATOM      1  C2  <0> d           0.002  -0.004   0.002  0.00  0.00    -0.040 A 
ATOM      2  C3  <0> d           0.006  -0.689  -1.199  0.00  0.00    -0.076 A 
ATOM      3  C4  <0> d           0.025  -2.071  -1.207  0.00  0.00    -0.082 A 
ATOM      4  C5  <0> d           0.040  -2.769  -0.013  0.00  0.00    -0.081 A 
ATOM      5  C6  <0> d           0.036  -2.086   1.188  0.00  0.00    -0.061 A 
ATOM      6  C7  <0> d           0.023  -0.702   1.196  0.00  0.00     0.040 A 
ATOM      7 Cl1  <0> d           0.025   0.157   2.704  0.00  0.00    -0.084 Cl
ATOM      8  H4  <0> d          -0.006  -0.144  -2.131  0.00  0.00     0.084 H 
ATOM      9  H5  <0> d           0.027  -2.605  -2.145  0.00  0.00     0.083 H 
ATOM     10  H6  <0> d           0.054  -3.849  -0.020  0.00  0.00     0.083 H 
ATOM     11  H7  <0> d           0.047  -2.632   2.120  0.00  0.00     0.086 H 
ENDROOT
BRANCH   1  12
ATOM     12  C1  <0> d          -0.018   1.503   0.010  0.00  0.00    -0.050 C 
ATOM     13  H1  <0> d           1.004   1.880   0.003  0.00  0.00     0.033 H 
ATOM     14  H2  <0> d          -0.545   1.864  -0.873  0.00  0.00     0.033 H 
ATOM     15  H3  <0> d          -0.529   1.854   0.907  0.00  0.00     0.033 H 
ENDBRANCH   1  12
TORSDOF 1
