REMARK  2 active torsions:
REMARK  status: ('A' for Active; 'I' for Inactive)
REMARK    1  A    between atoms: C1_1  and  C2_2 
REMARK    2  A    between atoms: C9_11  and  C10_13 
ROOT
ATOM      1  C2  <0> d           0.213   5.329   0.028  0.00  0.00    -0.011 A 
ATOM      2  H1  <0> d          -0.212   5.794  -0.861  0.00  0.00     0.050 H 
ATOM      3  C3  <0> d          -0.053   3.840   0.022  0.00  0.00    -0.026 A 
ATOM      4  C4  <0> d          -1.238   3.131   0.030  0.00  0.00    -0.074 A 
ATOM      5  C5  <0> d          -1.221   1.748   0.017  0.00  0.00    -0.082 A 
ATOM      6  C6  <0> d          -0.013   1.076   0.008  0.00  0.00    -0.081 A 
ATOM      7  C7  <0> d           1.173   1.779   0.000  0.00  0.00    -0.057 A 
ATOM      8  C8  <0> d           1.164   3.175   0.007  0.00  0.00     0.035 A 
ATOM      9  N1  <0> d           2.237   4.067   0.002  0.00  0.00    -0.385 N 
ATOM     10  C9  <0> d           1.746   5.447   0.014  0.00  0.00     0.013 A 
ATOM     11  H2  <0> d           2.094   5.965   0.908  0.00  0.00     0.072 H 
ATOM     12  H6  <0> d          -2.181   3.658   0.042  0.00  0.00     0.084 H 
ATOM     13  H7  <0> d          -2.148   1.195   0.019  0.00  0.00     0.083 H 
ATOM     14  H8  <0> d           0.002  -0.004   0.002  0.00  0.00     0.083 H 
ATOM     15  H9  <0> d           2.113   1.247  -0.011  0.00  0.00     0.086 H 
ATOM     16  H10 <0> d           3.173   3.811  -0.007  0.00  0.00     0.160 HD
ENDROOT
BRANCH   1  17
ATOM     17  C1  <0> d          -0.361   5.968   1.294  0.00  0.00    -0.067 C 
ATOM     18  H3  <0> d          -0.087   7.023   1.324  0.00  0.00     0.028 H 
ATOM     19  H4  <0> d          -1.447   5.876   1.287  0.00  0.00     0.028 H 
ATOM     20  H5  <0> d           0.042   5.463   2.171  0.00  0.00     0.028 H 
ENDBRANCH   1  17
BRANCH  10  21
ATOM     21  C10 <0> d           2.210   6.187  -1.242  0.00  0.00    -0.057 C 
ATOM     22  H11 <0> d           1.845   5.665  -2.127  0.00  0.00     0.030 H 
ATOM     23  H12 <0> d           1.815   7.203  -1.232  0.00  0.00     0.030 H 
ATOM     24  H13 <0> d           3.299   6.220  -1.262  0.00  0.00     0.030 H 
ENDBRANCH  10  21
TORSDOF 2
