REMARK  2 active torsions:
REMARK  status: ('A' for Active; 'I' for Inactive)
REMARK    1  A    between atoms: C3_3  and  C4_4 
REMARK    2  A    between atoms: C4_4  and  N1_5 
REMARK       I    between atoms: N1_5  and  C5_6 
REMARK       I    between atoms: C5_6  and  N2_8 
ROOT
ATOM      1  C4  <0> d          -0.384  -0.723   1.296  0.00  0.00     0.000 C 
ATOM      2  H6  <0> d           0.352  -0.500   2.069  0.00  0.00     0.064 H 
ATOM      3  H7  <0> d          -1.367  -0.383   1.621  0.00  0.00     0.064 H 
ENDROOT
BRANCH   1   4
ATOM      4  C3  <0> d           0.002  -0.004   0.002  0.00  0.00    -0.039 A 
ATOM      5  C1  <0> d          -0.019   1.526   0.010  0.00  0.00    -0.060 A 
ATOM      6  C2  <0> d           1.317   0.779  -0.006  0.00  0.00    -0.060 A 
ATOM      7  H1  <0> d          -0.307   2.020   0.938  0.00  0.00     0.033 H 
ATOM      8  H2  <0> d          -0.325   2.030  -0.906  0.00  0.00     0.033 H 
ATOM      9  H3  <0> d           1.889   0.792  -0.934  0.00  0.00     0.033 H 
ATOM     10  H4  <0> d           1.906   0.782   0.910  0.00  0.00     0.033 H 
ATOM     11  H5  <0> d          -0.290  -0.506  -0.920  0.00  0.00     0.042 H 
ENDBRANCH   1   4
BRANCH   1  12
ATOM     12  N1  <0> d          -0.420  -2.168   1.060  0.00  0.00    -0.343 N 
ATOM     13  C5  <0> d          -0.739  -3.008   2.065  0.00  0.00     0.313 C 
ATOM     14  O1  <0> d          -0.996  -2.565   3.168  0.00  0.00    -0.248 OA
ATOM     15  N2  <0> d          -0.773  -4.337   1.847  0.00  0.00    -0.352 N 
ATOM     16  H9  <0> d          -0.568  -4.690   0.968  0.00  0.00     0.160 HD
ATOM     17  H10 <0> d          -1.002  -4.941   2.571  0.00  0.00     0.160 HD
ATOM     18  H8  <0> d          -0.215  -2.521   0.180  0.00  0.00     0.164 HD
ENDBRANCH   1  12
TORSDOF 2
