REMARK  5 active torsions:
REMARK  status: ('A' for Active; 'I' for Inactive)
REMARK    1  A    between atoms: C1_1  and  C2_2 
REMARK    2  A    between atoms: C2_2  and  C3_3 
REMARK    3  A    between atoms: C2_2  and  C4_4 
REMARK    4  A    between atoms: C2_2  and  C5_5 
REMARK    5  A    between atoms: C6_8  and  N3_10 
ROOT
ATOM      1  C2  <0> d           1.833  -1.775  -0.024  0.00  0.00     0.018 C 
ENDROOT
BRANCH   1   2
ATOM      2  C1  <0> d           2.700  -2.003   1.216  0.00  0.00    -0.062 C 
ATOM      3  H1  <0> d           2.099  -1.849   2.112  0.00  0.00     0.029 H 
ATOM      4  H2  <0> d           3.084  -3.023   1.207  0.00  0.00     0.029 H 
ATOM      5  H3  <0> d           3.533  -1.300   1.211  0.00  0.00     0.029 H 
ENDBRANCH   1   2
BRANCH   1   6
ATOM      6  C3  <0> d           0.663  -2.761  -0.018  0.00  0.00    -0.062 C 
ATOM      7  H4  <0> d           0.046  -2.599  -0.901  0.00  0.00     0.029 H 
ATOM      8  H5  <0> d           1.048  -3.781  -0.026  0.00  0.00     0.029 H 
ATOM      9  H6  <0> d           0.063  -2.607   0.879  0.00  0.00     0.029 H 
ENDBRANCH   1   6
BRANCH   1  10
ATOM     10  C4  <0> d           2.675  -1.991  -1.283  0.00  0.00    -0.062 C 
ATOM     11  H7  <0> d           3.508  -1.288  -1.288  0.00  0.00     0.029 H 
ATOM     12  H8  <0> d           3.060  -3.011  -1.291  0.00  0.00     0.029 H 
ATOM     13  H9  <0> d           2.058  -1.828  -2.166  0.00  0.00     0.029 H 
ENDBRANCH   1  10
BRANCH   1  14
ATOM     14  C5  <0> d           1.300  -0.365  -0.012  0.00  0.00     0.178 A 
ATOM     15  O1  <0> d           0.002  -0.004   0.002  0.00  0.00    -0.259 OA
ATOM     16  C6  <0> d          -0.016   1.342   0.009  0.00  0.00     0.265 A 
ATOM     17  N2  <0> d           1.230   1.747  -0.000  0.00  0.00    -0.103 NA
ATOM     18  N1  <0> d           2.011   0.725  -0.013  0.00  0.00    -0.124 NA
BRANCH  16  19
ATOM     19  N3  <0> d          -1.140   2.146   0.019  0.00  0.00    -0.362 N 
ATOM     20  H10 <0> d          -2.024   1.746   0.022  0.00  0.00     0.159 HD
ATOM     21  H11 <0> d          -1.046   3.112   0.024  0.00  0.00     0.159 HD
ENDBRANCH  16  19
ENDBRANCH   1  14
TORSDOF 5
