REMARK  3 active torsions:
REMARK  status: ('A' for Active; 'I' for Inactive)
REMARK    1  A    between atoms: C1_1  and  C2_2 
REMARK    2  A    between atoms: C4_6  and  C6_10 
REMARK    3  A    between atoms: C4_6  and  C7_11 
ROOT
ATOM      1  C2  <0> d           2.183   1.595  -1.055  0.00  0.00     0.111 C 
ATOM      2  C3  <0> d           1.195   2.051   0.002  0.00  0.00     0.275 C 
ATOM      3  O1  <0> d           1.478   2.912   0.801  0.00  0.00    -0.264 OA
ATOM      4  O2  <0> d          -0.018   1.452   0.010  0.00  0.00    -0.283 OA
ATOM      5  C4  <0> d           0.002  -0.004   0.002  0.00  0.00     0.175 C 
ATOM      6  O3  <0> d           0.855  -0.463  -1.085  0.00  0.00    -0.283 OA
ATOM      7  C5  <0> d           2.092   0.083  -1.125  0.00  0.00     0.275 C 
ATOM      8  O4  <0> d           3.082  -0.605  -1.212  0.00  0.00    -0.264 OA
ATOM      9  H4  <0> d           3.193   1.895  -0.774  0.00  0.00     0.070 H 
ENDROOT
BRANCH   5  10
ATOM     10  C6  <0> d           0.553  -0.516   1.335  0.00  0.00    -0.025 C 
ATOM     11  H5  <0> d          -0.083  -0.166   2.148  0.00  0.00     0.035 H 
ATOM     12  H6  <0> d           0.567  -1.605   1.328  0.00  0.00     0.035 H 
ATOM     13  H7  <0> d           1.566  -0.140   1.478  0.00  0.00     0.035 H 
ENDBRANCH   5  10
BRANCH   5  14
ATOM     14  C7  <0> d          -1.418  -0.534  -0.204  0.00  0.00    -0.025 C 
ATOM     15  H8  <0> d          -1.807  -0.171  -1.155  0.00  0.00     0.035 H 
ATOM     16  H9  <0> d          -1.402  -1.624  -0.210  0.00  0.00     0.035 H 
ATOM     17  H10 <0> d          -2.058  -0.184   0.607  0.00  0.00     0.035 H 
ENDBRANCH   5  14
BRANCH   1  18
ATOM     18  C1  <0> d           1.815   2.203  -2.410  0.00  0.00    -0.055 C 
ATOM     19  H1  <0> d           0.797   1.916  -2.673  0.00  0.00     0.029 H 
ATOM     20  H2  <0> d           1.883   3.289  -2.352  0.00  0.00     0.029 H 
ATOM     21  H3  <0> d           2.504   1.837  -3.172  0.00  0.00     0.029 H 
ENDBRANCH   1  18
TORSDOF 3
