REMARK  3 active torsions:
REMARK  status: ('A' for Active; 'I' for Inactive)
REMARK    1  A    between atoms: C1_1  and  C2_2 
REMARK    2  A    between atoms: C4_4  and  C7_9 
REMARK    3  A    between atoms: C5_6  and  C6_8 
ROOT
ATOM      1  C2  <0> d          -2.581   4.090   0.037  0.00  0.00     0.035 A 
ATOM      2  C3  <0> d          -1.343   3.461   0.033  0.00  0.00    -0.025 A 
ATOM      3  C4  <0> d          -1.311   2.067   0.019  0.00  0.00     0.137 A 
ATOM      4  N1  <0> d          -2.461   1.396   0.021  0.00  0.00    -0.227 NA
ATOM      5  C5  <0> d          -3.611   2.035   0.031  0.00  0.00     0.123 A 
ATOM      6  N2  <0> d          -3.678   3.352   0.038  0.00  0.00    -0.239 NA
ATOM      7  H4  <0> d          -0.429   4.037   0.036  0.00  0.00     0.090 H 
ENDROOT
BRANCH   1   8
ATOM      8  C1  <0> d          -2.673   5.594   0.045  0.00  0.00    -0.035 C 
ATOM      9  H1  <0> d          -2.691   5.952   1.075  0.00  0.00     0.035 H 
ATOM     10  H2  <0> d          -1.809   6.014  -0.470  0.00  0.00     0.035 H 
ATOM     11  H3  <0> d          -3.586   5.905  -0.463  0.00  0.00     0.035 H 
ENDBRANCH   1   8
BRANCH   5  12
ATOM     12  C6  <0> d          -4.891   1.238   0.032  0.00  0.00    -0.019 C 
ATOM     13  H5  <0> d          -5.194   1.040   1.060  0.00  0.00     0.037 H 
ATOM     14  H6  <0> d          -5.672   1.804  -0.474  0.00  0.00     0.037 H 
ATOM     15  H7  <0> d          -4.731   0.293  -0.488  0.00  0.00     0.037 H 
ENDBRANCH   5  12
BRANCH   3  16
ATOM     16  C7  <0> d          -0.016   1.342   0.009  0.00  0.00     0.229 C 
ATOM     17  O1  <0> d           1.027   1.963   0.003  0.00  0.00    -0.643 OA
ATOM     18  O2  <0> d           0.002  -0.004   0.002  0.00  0.00    -0.643 OA
ENDBRANCH   3  16
TORSDOF 3
