REMARK  2 active torsions:
REMARK  status: ('A' for Active; 'I' for Inactive)
REMARK    1  A    between atoms: C5_7  and  C7_10 
REMARK    2  A    between atoms: C7_10  and  O3_11 
ROOT
ATOM      1  C1  <0> d           1.487   0.689   2.192  0.00  0.00    -0.058 C 
ATOM      2  C2  <0> d           1.833   1.987   1.455  0.00  0.00    -0.019 C 
ATOM      3  C3  <0> d           1.354   1.873  -0.001  0.00  0.00     0.132 C 
ATOM      4  H1  <0> d           1.465   2.819  -0.531  0.00  0.00     0.129 H 
ATOM      5  O1  <0> d          -0.017   1.435   0.010  0.00  0.00    -0.358 OA
ATOM      6  C4  <0> d           0.002  -0.004   0.002  0.00  0.00     0.053 C 
ATOM      7  C5  <0> d           1.501  -0.382  -0.058  0.00  0.00     0.106 C 
ATOM      8  C6  <0> d           2.010  -0.506   1.387  0.00  0.00    -0.032 C 
ATOM      9  O2  <0> d           2.105   0.808  -0.624  0.00  0.00    -0.346 OA
ATOM     10  H2  <0> d           0.406   0.609   2.301  0.00  0.00     0.033 H 
ATOM     11  H3  <0> d           1.953   0.696   3.178  0.00  0.00     0.033 H 
ATOM     12  H4  <0> d           1.334   2.826   1.939  0.00  0.00     0.040 H 
ATOM     13  H5  <0> d           2.912   2.142   1.475  0.00  0.00     0.040 H 
ATOM     14  H6  <0> d          -0.451  -0.394   0.913  0.00  0.00     0.079 H 
ATOM     15  H7  <0> d          -0.520  -0.385  -0.875  0.00  0.00     0.079 H 
ATOM     16  H8  <0> d           1.643  -1.433   1.827  0.00  0.00     0.037 H 
ATOM     17  H9  <0> d           3.100  -0.502   1.393  0.00  0.00     0.037 H 
ENDROOT
BRANCH   7  18
ATOM     18  C7  <0> d           1.759  -1.645  -0.882  0.00  0.00     0.048 C 
ATOM     19  H10 <0> d           2.829  -1.855  -0.900  0.00  0.00     0.078 H 
ATOM     20  H11 <0> d           1.231  -2.486  -0.433  0.00  0.00     0.078 H 
BRANCH  18  21
ATOM     21  O3  <0> d           1.291  -1.446  -2.217  0.00  0.00    -0.398 OA
ATOM     22  H12 <0> d           1.423  -2.209  -2.798  0.00  0.00     0.209 HD
ENDBRANCH  18  21
ENDBRANCH   7  18
TORSDOF 2
