REMARK  4 active torsions:
REMARK  status: ('A' for Active; 'I' for Inactive)
REMARK    1  A    between atoms: C1_1  and  C2_2 
REMARK    2  A    between atoms: C4_5  and  C5_7 
REMARK    3  A    between atoms: C5_7  and  O2_9 
REMARK    4  A    between atoms: O2_9  and  C6_10 
ROOT
ATOM      1  C2  <0> d           0.002  -0.004   0.002  0.00  0.00    -0.045 A 
ATOM      2  H1  <0> d          -0.882  -0.484  -0.417  0.00  0.00     0.040 H 
ATOM      3  C3  <0> d           1.351  -0.691  -0.221  0.00  0.00    -0.049 A 
ATOM      4  C4  <0> d           0.703  -0.708   1.166  0.00  0.00     0.034 A 
ATOM      5  H2  <0> d           0.280  -1.650   1.512  0.00  0.00     0.056 H 
ATOM      6  H6  <0> d           1.354  -1.623  -0.786  0.00  0.00     0.034 H 
ATOM      7  H7  <0> d           2.223  -0.053  -0.362  0.00  0.00     0.034 H 
ENDROOT
BRANCH   4   8
ATOM      8  C5  <0> d           1.320   0.160   2.233  0.00  0.00     0.263 C 
ATOM      9  O1  <0> d           1.250   1.363   2.149  0.00  0.00    -0.265 OA
BRANCH   8  10
ATOM     10  O2  <0> d           1.948  -0.405   3.276  0.00  0.00    -0.326 OA
BRANCH  10  11
ATOM     11  C6  <0> d           2.510   0.477   4.250  0.00  0.00     0.013 C 
ATOM     12  H8  <0> d           2.986  -0.107   5.038  0.00  0.00     0.067 H 
ATOM     13  H9  <0> d           3.252   1.119   3.774  0.00  0.00     0.067 H 
ATOM     14  H10 <0> d           1.720   1.093   4.681  0.00  0.00     0.067 H 
ENDBRANCH  10  11
ENDBRANCH   8  10
ENDBRANCH   4   8
BRANCH   1  15
ATOM     15  C1  <0> d          -0.019   1.526   0.010  0.00  0.00    -0.072 C 
ATOM     16  H3  <0> d           1.004   1.903   0.003  0.00  0.00     0.028 H 
ATOM     17  H4  <0> d          -0.546   1.887  -0.873  0.00  0.00     0.028 H 
ATOM     18  H5  <0> d          -0.529   1.877   0.907  0.00  0.00     0.028 H 
ENDBRANCH   1  15
TORSDOF 4
