REMARK  8 active torsions:
REMARK  status: ('A' for Active; 'I' for Inactive)
REMARK    1  A    between atoms: C1_1  and  C2_2 
REMARK    2  A    between atoms: C2_2  and  C3_3 
REMARK    3  A    between atoms: C2_2  and  C4_4 
REMARK    4  A    between atoms: C4_4  and  C5_5 
REMARK    5  A    between atoms: C5_5  and  C6_7 
REMARK    6  A    between atoms: C5_5  and  O2_10 
REMARK    7  A    between atoms: C6_7  and  O1_8 
REMARK    8  A    between atoms: O1_8  and  C7_9 
ROOT
ATOM      1  C4  <0> d          -1.433  -0.534   0.013  0.00  0.00    -0.036 C 
ATOM      2  H9  <0> d          -1.419  -1.620   0.097  0.00  0.00     0.037 H 
ATOM      3  H10 <0> d          -1.970  -0.111   0.862  0.00  0.00     0.037 H 
ENDROOT
BRANCH   1   4
ATOM      4  C2  <0> d           0.002  -0.004   0.002  0.00  0.00    -0.059 C 
ATOM      5  H5  <0> d           0.512  -0.356  -0.895  0.00  0.00     0.039 H 
BRANCH   4   6
ATOM      6  C1  <0> d          -0.019   1.526   0.010  0.00  0.00    -0.073 C 
ATOM      7  H2  <0> d           1.004   1.903   0.003  0.00  0.00     0.028 H 
ATOM      8  H3  <0> d          -0.546   1.887  -0.873  0.00  0.00     0.028 H 
ATOM      9  H4  <0> d          -0.529   1.877   0.907  0.00  0.00     0.028 H 
ENDBRANCH   4   6
BRANCH   4  10
ATOM     10  C3  <0> d           0.742  -0.511   1.242  0.00  0.00    -0.073 C 
ATOM     11  H6  <0> d           0.232  -0.159   2.138  0.00  0.00     0.028 H 
ATOM     12  H7  <0> d           0.757  -1.601   1.236  0.00  0.00     0.028 H 
ATOM     13  H8  <0> d           1.765  -0.134   1.234  0.00  0.00     0.028 H 
ENDBRANCH   4  10
ENDBRANCH   1   4
BRANCH   1  14
ATOM     14  C5  <0> d          -2.135  -0.131  -1.286  0.00  0.00     0.056 C 
ATOM     15  H1  <0> d          -2.072   0.949  -1.413  0.00  0.00     0.086 H 
BRANCH  14  16
ATOM     16  C6  <0> d          -3.605  -0.552  -1.222  0.00  0.00     0.043 C 
ATOM     17  H11 <0> d          -3.671  -1.639  -1.184  0.00  0.00     0.078 H 
ATOM     18  H12 <0> d          -4.066  -0.128  -0.330  0.00  0.00     0.078 H 
BRANCH  16  19
ATOM     19  O1  <0> d          -4.287  -0.074  -2.383  0.00  0.00    -0.393 OA
BRANCH  19  20
ATOM     20  C7  <0> d          -5.675  -0.414  -2.423  0.00  0.00     0.004 C 
ATOM     21  H13 <0> d          -5.783  -1.499  -2.410  0.00  0.00     0.066 H 
ATOM     22  H14 <0> d          -6.179   0.012  -1.556  0.00  0.00     0.066 H 
ATOM     23  H15 <0> d          -6.121  -0.016  -3.335  0.00  0.00     0.066 H 
ENDBRANCH  19  20
ENDBRANCH  16  19
ENDBRANCH  14  16
BRANCH  14  24
ATOM     24  O2  <0> d          -1.502  -0.779  -2.390  0.00  0.00    -0.393 OA
ATOM     25  H16 <0> d          -1.520  -1.745  -2.343  0.00  0.00     0.210 HD
ENDBRANCH  14  24
ENDBRANCH   1  14
TORSDOF 8
