REMARK  3 active torsions:
REMARK  status: ('A' for Active; 'I' for Inactive)
REMARK    1  A    between atoms: N1_6  and  C4_7 
REMARK    2  A    between atoms: C4_7  and  C5_8 
REMARK    3  A    between atoms: C5_8  and  O3_9 
ROOT
ATOM      1  C1  <0> d           1.167   2.332   0.003  0.00  0.00     0.020 A 
ATOM      2  C2  <0> d           0.576   3.755   0.016  0.00  0.00     0.045 A 
ATOM      3  O1  <0> d          -0.865   3.539   0.029  0.00  0.00    -0.302 OA
ATOM      4  C3  <0> d          -1.118   2.225   0.019  0.00  0.00     0.362 A 
ATOM      5  O2  <0> d          -2.244   1.767   0.021  0.00  0.00    -0.238 OA
ATOM      6  N1  <0> d          -0.018   1.461   0.010  0.00  0.00    -0.324 N 
ATOM      7  H1  <0> d           1.773   2.162   0.893  0.00  0.00     0.067 H 
ATOM      8  H2  <0> d           1.756   2.171  -0.899  0.00  0.00     0.067 H 
ATOM      9  H3  <0> d           0.889   4.291   0.912  0.00  0.00     0.077 H 
ATOM     10  H4  <0> d           0.873   4.300  -0.880  0.00  0.00     0.077 H 
ENDROOT
BRANCH   6  11
ATOM     11  C4  <0> d           0.002  -0.004   0.002  0.00  0.00     0.019 C 
ATOM     12  H5  <0> d          -0.888  -0.377  -0.505  0.00  0.00     0.067 H 
ATOM     13  H6  <0> d           0.892  -0.352  -0.522  0.00  0.00     0.067 H 
BRANCH  11  14
ATOM     14  C5  <0> d           0.023  -0.522   1.442  0.00  0.00     0.032 C 
ATOM     15  H7  <0> d           0.127  -1.607   1.436  0.00  0.00     0.076 H 
ATOM     16  H8  <0> d           0.864  -0.079   1.975  0.00  0.00     0.076 H 
BRANCH  14  17
ATOM     17  O3  <0> d          -1.197  -0.164   2.094  0.00  0.00    -0.399 OA
ATOM     18  H9  <0> d          -1.254  -0.461   3.013  0.00  0.00     0.209 HD
ENDBRANCH  14  17
ENDBRANCH  11  14
ENDBRANCH   6  11
TORSDOF 3
