REMARK  6 active torsions:
REMARK  status: ('A' for Active; 'I' for Inactive)
REMARK    1  A    between atoms: C1_1  and  C2_2 
REMARK    2  A    between atoms: C2_2  and  C6_8 
REMARK    3  A    between atoms: C3_3  and  C4_4 
REMARK    4  A    between atoms: C3_3  and  C5_6 
REMARK    5  A    between atoms: C4_4  and  O1_5 
REMARK    6  A    between atoms: C5_6  and  O2_7 
ROOT
ATOM      1  C2  <0> d           1.317   0.132  -2.254  0.00  0.00    -0.081 C 
ATOM      2  C3  <0> d           1.946   1.160  -1.740  0.00  0.00    -0.032 C 
ENDROOT
BRANCH   2   3
ATOM      3  C4  <0> d           1.330   1.926  -0.598  0.00  0.00     0.039 C 
ATOM      4  H4  <0> d           1.946   1.808   0.294  0.00  0.00     0.081 H 
ATOM      5  H5  <0> d           0.329   1.542  -0.401  0.00  0.00     0.081 H 
BRANCH   3   6
ATOM      6  O1  <0> d           1.249   3.311  -0.942  0.00  0.00    -0.397 OA
ATOM      7  H6  <0> d           0.768   3.485  -1.762  0.00  0.00     0.209 HD
ENDBRANCH   3   6
ENDBRANCH   2   3
BRANCH   2   8
ATOM      8  C5  <0> d           3.286   1.576  -2.290  0.00  0.00     0.039 C 
ATOM      9  H7  <0> d           3.527   0.964  -3.159  0.00  0.00     0.081 H 
ATOM     10  H8  <0> d           3.249   2.625  -2.583  0.00  0.00     0.081 H 
BRANCH   8  11
ATOM     11  O2  <0> d           4.289   1.396  -1.288  0.00  0.00    -0.397 OA
ATOM     12  H9  <0> d           5.179   1.645  -1.573  0.00  0.00     0.209 HD
ENDBRANCH   8  11
ENDBRANCH   2   8
BRANCH   1  13
ATOM     13  C1  <0> d          -0.108  -0.154  -1.857  0.00  0.00    -0.054 C 
ATOM     14  H1  <0> d          -0.783   0.443  -2.470  0.00  0.00     0.033 H 
ATOM     15  H2  <0> d          -0.321  -1.213  -2.008  0.00  0.00     0.033 H 
ATOM     16  H3  <0> d          -0.251   0.099  -0.807  0.00  0.00     0.033 H 
ENDBRANCH   1  13
BRANCH   1  17
ATOM     17  C6  <0> d           2.019  -0.763  -3.242  0.00  0.00    -0.054 C 
ATOM     18  H10 <0> d           3.067  -0.472  -3.316  0.00  0.00     0.033 H 
ATOM     19  H11 <0> d           1.952  -1.798  -2.906  0.00  0.00     0.033 H 
ATOM     20  H12 <0> d           1.545  -0.667  -4.219  0.00  0.00     0.033 H 
ENDBRANCH   1  17
TORSDOF 6
