REMARK  2 active torsions:
REMARK  status: ('A' for Active; 'I' for Inactive)
REMARK    1  A    between atoms: C1_1  and  C2_2 
REMARK    2  A    between atoms: C2_2  and  C4_4 
ROOT
ATOM      1  C4  <0> d          -0.018   1.469   0.010  0.00  0.00    -0.003 A 
ATOM      2  C5  <0> d           1.278   1.875  -0.000  0.00  0.00    -0.011 A 
ATOM      3  N1  <0> d           2.101   0.787  -0.014  0.00  0.00    -0.364 N 
ATOM      4  H1  <0> d           3.071   0.825  -0.023  0.00  0.00     0.165 HD
ATOM      5  C6  <0> d           1.358  -0.373  -0.013  0.00  0.00     0.043 A 
ATOM      6  C7  <0> d           0.002  -0.004   0.002  0.00  0.00     0.003 A 
ATOM      7  C8  <0> d          -0.988  -0.985   0.007  0.00  0.00    -0.070 A 
ATOM      8  C9  <0> d          -0.631  -2.315  -0.004  0.00  0.00    -0.082 A 
ATOM      9  C10 <0> d           0.708  -2.680  -0.018  0.00  0.00    -0.081 A 
ATOM     10  C11 <0> d           1.698  -1.722  -0.023  0.00  0.00    -0.056 A 
ATOM     11  H7  <0> d           1.607   2.904   0.002  0.00  0.00     0.112 H 
ATOM     12  H8  <0> d          -2.031  -0.703   0.018  0.00  0.00     0.084 H 
ATOM     13  H9  <0> d          -1.396  -3.077  -0.000  0.00  0.00     0.083 H 
ATOM     14  H10 <0> d           0.976  -3.727  -0.026  0.00  0.00     0.083 H 
ATOM     15  H11 <0> d           2.736  -2.018  -0.034  0.00  0.00     0.086 H 
ENDROOT
BRANCH   1  16
ATOM     16  C2  <0> d          -1.213   2.334   0.021  0.00  0.00    -0.059 C 
ATOM     17  C3  <0> d          -1.931   2.488  -1.085  0.00  0.00    -0.115 C 
ATOM     18  H5  <0> d          -2.806   3.122  -1.077  0.00  0.00     0.067 H 
ATOM     19  H6  <0> d          -1.640   1.980  -1.993  0.00  0.00     0.067 H 
BRANCH  16  20
ATOM     20  C1  <0> d          -1.619   3.043   1.287  0.00  0.00    -0.051 C 
ATOM     21  H2  <0> d          -0.814   3.703   1.609  0.00  0.00     0.033 H 
ATOM     22  H3  <0> d          -2.519   3.631   1.103  0.00  0.00     0.033 H 
ATOM     23  H4  <0> d          -1.820   2.308   2.067  0.00  0.00     0.033 H 
ENDBRANCH  16  20
ENDBRANCH   1  16
TORSDOF 2
