REMARK  3 active torsions:
REMARK  status: ('A' for Active; 'I' for Inactive)
REMARK    1  A    between atoms: C2_2  and  O1_9 
REMARK    2  A    between atoms: C3_3  and  N4_8 
REMARK    3  A    between atoms: C4_5  and  N3_7 
ROOT
ATOM      1  C1  <0> d          -0.016   1.322   0.009  0.00  0.00     0.030 A 
ATOM      2  C2  <0> d           1.183   2.014   0.002  0.00  0.00     0.128 A 
ATOM      3  C3  <0> d           2.375   1.281  -0.014  0.00  0.00     0.175 A 
ATOM      4  N1  <0> d           2.315  -0.046  -0.020  0.00  0.00    -0.045 NA
ATOM      5  C4  <0> d           1.146  -0.670  -0.013  0.00  0.00     0.699 A 
ATOM      6  N2  <0> d           0.002  -0.004   0.002  0.00  0.00    -0.198 N 
ATOM      7  H1  <0> d          -0.955   1.855   0.026  0.00  0.00     0.116 H 
ATOM      8  H7  <0> d          -0.835  -0.493   0.008  0.00  0.00     0.183 HD
ENDROOT
BRANCH   3   9
ATOM      9  N4  <0> d           3.602   1.930  -0.022  0.00  0.00    -0.381 N 
ATOM     10  H4  <0> d           3.637   2.900  -0.018  0.00  0.00     0.157 HD
ATOM     11  H5  <0> d           4.423   1.415  -0.033  0.00  0.00     0.157 HD
ENDBRANCH   3   9
BRANCH   2  12
ATOM     12  O1  <0> d           1.202   3.375   0.008  0.00  0.00    -0.356 OA
ATOM     13  H6  <0> d           1.215   3.764   0.893  0.00  0.00     0.218 HD
ENDBRANCH   2  12
BRANCH   5  14
ATOM     14  N3  <0> d           1.121  -2.056  -0.020  0.00  0.00    -0.233 N 
ATOM     15  H2  <0> d           1.952  -2.556  -0.031  0.00  0.00     0.174 HD
ATOM     16  H3  <0> d           0.272  -2.525  -0.015  0.00  0.00     0.174 HD
ENDBRANCH   5  14
TORSDOF 3
