REMARK  1 active torsions:
REMARK  status: ('A' for Active; 'I' for Inactive)
REMARK    1  A    between atoms: C1_1  and  C2_2 
ROOT
ATOM      1  C2  <0> d           0.002  -0.004   0.002  0.00  0.00    -0.015 A 
ATOM      2  H1  <0> d          -1.016  -0.395  -0.003  0.00  0.00     0.053 H 
ATOM      3  C3  <0> d           0.762  -0.510  -1.202  0.00  0.00    -0.094 A 
ATOM      4  C4  <0> d           1.796  -1.213  -0.774  0.00  0.00    -0.075 A 
ATOM      5  C5  <0> d           1.838  -1.251   0.700  0.00  0.00    -0.029 A 
ATOM      6  C6  <0> d           0.755  -0.523   1.203  0.00  0.00    -0.041 A 
ATOM      7  C7  <0> d           0.562  -0.403   2.559  0.00  0.00    -0.075 A 
ATOM      8  C8  <0> d           1.444  -1.007   3.439  0.00  0.00    -0.082 A 
ATOM      9  C9  <0> d           2.520  -1.731   2.956  0.00  0.00    -0.082 A 
ATOM     10  C10 <0> d           2.724  -1.857   1.593  0.00  0.00    -0.072 A 
ATOM     11  H5  <0> d           0.504  -0.329  -2.235  0.00  0.00     0.077 H 
ATOM     12  H6  <0> d           2.516  -1.696  -1.418  0.00  0.00     0.084 H 
ATOM     13  H7  <0> d          -0.278   0.161   2.938  0.00  0.00     0.084 H 
ATOM     14  H8  <0> d           1.293  -0.913   4.504  0.00  0.00     0.083 H 
ATOM     15  H9  <0> d           3.205  -2.200   3.647  0.00  0.00     0.083 H 
ATOM     16  H10 <0> d           3.565  -2.423   1.220  0.00  0.00     0.084 H 
ENDROOT
BRANCH   1  17
ATOM     17  C1  <0> d          -0.019   1.526   0.010  0.00  0.00    -0.066 C 
ATOM     18  H2  <0> d           1.004   1.903   0.003  0.00  0.00     0.028 H 
ATOM     19  H3  <0> d          -0.546   1.887  -0.873  0.00  0.00     0.028 H 
ATOM     20  H4  <0> d          -0.529   1.877   0.907  0.00  0.00     0.028 H 
ENDBRANCH   1  17
TORSDOF 1
