REMARK  1 active torsions:
REMARK  status: ('A' for Active; 'I' for Inactive)
REMARK    1  A    between atoms: C5_5  and  O1_7 
ROOT
ATOM      1  C1  <0> d           0.042  -2.087   1.200  0.00  0.00    -0.079 A 
ATOM      2  C2  <0> d           0.040  -2.780   0.007  0.00  0.00    -0.063 A 
ATOM      3  C3  <0> d           0.019  -2.085  -1.204  0.00  0.00     0.047 A 
ATOM      4  C4  <0> d          -0.006  -0.689  -1.201  0.00  0.00    -0.031 A 
ATOM      5  C5  <0> d           0.002  -0.004   0.002  0.00  0.00     0.067 A 
ATOM      6  C6  <0> d           0.023  -0.704   1.201  0.00  0.00    -0.051 A 
ATOM      7  C7  <0> d           0.017  -2.801  -2.444  0.00  0.00     0.099 C 
ATOM      8  N1  <0> d           0.015  -3.369  -3.428  0.00  0.00    -0.191 NA
ATOM      9  H1  <0> d           0.058  -2.626   2.136  0.00  0.00     0.083 H 
ATOM     10  H2  <0> d           0.055  -3.860   0.010  0.00  0.00     0.085 H 
ATOM     11  H3  <0> d          -0.026  -0.146  -2.134  0.00  0.00     0.090 H 
ATOM     12  H4  <0> d           0.024  -0.167   2.138  0.00  0.00     0.087 H 
ENDROOT
BRANCH   5  13
ATOM     13  O1  <0> d          -0.016   1.355   0.009  0.00  0.00    -0.361 OA
ATOM     14  H5  <0> d           0.862   1.760   0.003  0.00  0.00     0.217 HD
ENDBRANCH   5  13
TORSDOF 1
