REMARK  2 active torsions:
REMARK  status: ('A' for Active; 'I' for Inactive)
REMARK    1  A    between atoms: C1_1  and  C2_2 
REMARK    2  A    between atoms: C3_3  and  C6_11 
ROOT
ATOM      1  C2  <0> d          -0.718   1.572   1.248  0.00  0.00     0.019 A 
ATOM      2  C3  <0> d          -0.028   1.802   2.379  0.00  0.00     0.021 A 
ATOM      3  C4  <0> d          -0.750   2.279   3.577  0.00  0.00     0.289 A 
ATOM      4  O1  <0> d          -0.143   2.493   4.608  0.00  0.00    -0.264 OA
ATOM      5  N1  <0> d          -2.081   2.477   3.526  0.00  0.00    -0.129 NA
ATOM      6  N2  <0> d          -2.799   2.237   2.351  0.00  0.00    -0.240 N 
ATOM      7  H1  <0> d          -3.886   2.398   2.328  0.00  0.00     0.192 HD
ATOM      8  C5  <0> d          -2.177   1.808   1.236  0.00  0.00     0.268 A 
ATOM      9  O2  <0> d          -2.816   1.610   0.222  0.00  0.00    -0.266 OA
ENDROOT
BRANCH   1  10
ATOM     10  C1  <0> d          -0.013   1.086   0.008  0.00  0.00    -0.045 C 
ATOM     11  H2  <0> d           1.061   0.972   0.218  0.00  0.00     0.033 H 
ATOM     12  H3  <0> d          -0.153   1.815  -0.803  0.00  0.00     0.033 H 
ATOM     13  H4  <0> d          -0.432   0.115  -0.295  0.00  0.00     0.033 H 
ENDBRANCH   1  10
BRANCH   2  14
ATOM     14  C6  <0> d           1.462   1.578   2.424  0.00  0.00    -0.045 C 
ATOM     15  H5  <0> d           1.839   1.820   3.429  0.00  0.00     0.033 H 
ATOM     16  H6  <0> d           1.953   2.225   1.682  0.00  0.00     0.033 H 
ATOM     17  H7  <0> d           1.681   0.525   2.194  0.00  0.00     0.033 H 
ENDBRANCH   2  14
TORSDOF 2
