REMARK  1 active torsions:
REMARK  status: ('A' for Active; 'I' for Inactive)
REMARK    1  A    between atoms: C2_2  and  N3_8 
ROOT
ATOM      1  C1  <0> d          -0.016   1.315   0.009  0.00  0.00     0.047 A 
ATOM      2  C2  <0> d           1.182   2.026   0.002  0.00  0.00     0.138 A 
ATOM      3  N1  <0> d           2.337   1.374  -0.013  0.00  0.00    -0.239 NA
ATOM      4  C3  <0> d           2.347   0.051  -0.020  0.00  0.00     0.043 A 
ATOM      5  C4  <0> d           1.156  -0.652  -0.013  0.00  0.00     0.143 A 
ATOM      6  N2  <0> d           0.002  -0.004   0.002  0.00  0.00    -0.243 NA
ATOM      7 Cl1  <0> d           1.175  -2.387  -0.022  0.00  0.00    -0.061 Cl
ATOM      8  H1  <0> d          -0.958   1.843   0.026  0.00  0.00     0.120 H 
ATOM      9  H2  <0> d           3.287  -0.480  -0.032  0.00  0.00     0.119 H 
ENDROOT
BRANCH   2  10
ATOM     10  N3  <0> d           1.167   3.417   0.009  0.00  0.00    -0.383 N 
ATOM     11  H3  <0> d           0.322   3.893   0.019  0.00  0.00     0.157 HD
ATOM     12  H4  <0> d           2.002   3.911   0.004  0.00  0.00     0.157 HD
ENDBRANCH   2  10
TORSDOF 1
