REMARK  2 active torsions:
REMARK  status: ('A' for Active; 'I' for Inactive)
REMARK    1  A    between atoms: C3_3  and  N3_12 
REMARK    2  A    between atoms: C7_10  and  O1_11 
ROOT
ATOM      1  C1  <0> d          -0.733   3.656   0.027  0.00  0.00    -0.079 A 
ATOM      2  C2  <0> d           0.588   4.083   0.018  0.00  0.00    -0.057 A 
ATOM      3  C3  <0> d           1.620   3.164   0.003  0.00  0.00     0.042 A 
ATOM      4  C4  <0> d           1.324   1.791  -0.001  0.00  0.00     0.072 A 
ATOM      5  C5  <0> d          -0.017   1.366   0.010  0.00  0.00     0.067 A 
ATOM      6  C6  <0> d          -1.038   2.314   0.029  0.00  0.00    -0.055 A 
ATOM      7  N1  <0> d           0.002  -0.004   0.002  0.00  0.00    -0.275 N 
ATOM      8  H1  <0> d          -0.805  -0.595   0.006  0.00  0.00     0.189 HD
ATOM      9  N2  <0> d           1.329  -0.445  -0.013  0.00  0.00    -0.148 NA
ATOM     10  C7  <0> d           2.140   0.578  -0.015  0.00  0.00     0.196 A 
ATOM     11  H2  <0> d          -1.529   4.385   0.038  0.00  0.00     0.083 H 
ATOM     12  H3  <0> d           0.811   5.140   0.021  0.00  0.00     0.086 H 
ATOM     13  H4  <0> d          -2.070   1.996   0.042  0.00  0.00     0.087 H 
ENDROOT
BRANCH   3  14
ATOM     14  N3  <0> d           2.945   3.596  -0.007  0.00  0.00    -0.398 N 
ATOM     15  H6  <0> d           3.667   2.948  -0.017  0.00  0.00     0.156 HD
ATOM     16  H7  <0> d           3.146   4.545  -0.004  0.00  0.00     0.156 HD
ENDBRANCH   3  14
BRANCH  10  17
ATOM     17  O1  <0> d           3.498   0.525  -0.029  0.00  0.00    -0.343 OA
ATOM     18  H5  <0> d           3.794  -0.430  -0.036  0.00  0.00     0.219 HD
ENDBRANCH  10  17
TORSDOF 2
