REMARK  5 active torsions:
REMARK  status: ('A' for Active; 'I' for Inactive)
REMARK    1  A    between atoms: C1_1  and  C2_2 
REMARK    2  A    between atoms: C2_2  and  C3_4 
REMARK    3  A    between atoms: C2_2  and  N1_7 
REMARK    4  A    between atoms: C3_4  and  C4_5 
REMARK    5  A    between atoms: C4_5  and  O1_6 
ROOT
ATOM      1  C2  <0> d           0.011   1.072   2.506  0.00  0.00     0.032 C 
ATOM      2  H1  <0> d           1.057   1.375   2.454  0.00  0.00     0.075 H 
ENDROOT
BRANCH   1   3
ATOM      3  C1  <0> d          -0.075  -0.454   2.563  0.00  0.00    -0.055 C 
ATOM      4  H2  <0> d           0.452  -0.815   3.446  0.00  0.00     0.030 H 
ATOM      5  H3  <0> d          -1.121  -0.757   2.615  0.00  0.00     0.030 H 
ATOM      6  H4  <0> d           0.381  -0.878   1.669  0.00  0.00     0.030 H 
ENDBRANCH   1   3
BRANCH   1   7
ATOM      7  C3  <0> d          -0.729   1.579   1.267  0.00  0.00    -0.025 C 
ATOM      8  H5  <0> d          -0.744   2.669   1.273  0.00  0.00     0.039 H 
ATOM      9  H6  <0> d          -1.751   1.202   1.275  0.00  0.00     0.039 H 
BRANCH   7  10
ATOM     10  C4  <0> d          -0.013   1.086   0.008  0.00  0.00     0.019 C 
ATOM     11  H7  <0> d           0.002  -0.004   0.002  0.00  0.00     0.074 H 
ATOM     12  H8  <0> d           1.010   1.463   0.000  0.00  0.00     0.074 H 
BRANCH  10  13
ATOM     13  O1  <0> d          -0.704   1.559  -1.150  0.00  0.00    -0.401 OA
ATOM     14  H9  <0> d          -0.304   1.284  -1.986  0.00  0.00     0.209 HD
ENDBRANCH  10  13
ENDBRANCH   7  10
ENDBRANCH   1   7
BRANCH   1  15
ATOM     15  N1  <0> d          -0.603   1.642   3.708  0.00  0.00    -0.277 N 
ATOM     16  N2  <0> d          -0.177   2.792   4.386  0.00  0.00    -0.185 NA
ATOM     17  C7  <0> d          -0.974   2.984   5.405  0.00  0.00     0.023 A 
ATOM     18  C6  <0> d          -1.925   1.959   5.416  0.00  0.00    -0.048 A 
ATOM     19  H12 <0> d          -0.906   3.792   6.119  0.00  0.00     0.117 H 
ATOM     20  C5  <0> d          -1.675   1.147   4.362  0.00  0.00     0.000 A 
ATOM     21  H11 <0> d          -2.720   1.837   6.137  0.00  0.00     0.087 H 
ATOM     22  H10 <0> d          -2.233   0.263   4.093  0.00  0.00     0.114 H 
ENDBRANCH   1  15
TORSDOF 5
