REMARK  3 active torsions:
REMARK  status: ('A' for Active; 'I' for Inactive)
REMARK    1  A    between atoms: C1_1  and  C2_2 
REMARK    2  A    between atoms: C2_2  and  C3_3 
REMARK    3  A    between atoms: C3_3  and  C5_6 
ROOT
ATOM      1  C3  <0> d           2.329   0.869  -0.015  0.00  0.00     0.091 C 
ATOM      2  C4  <0> d           2.273  -0.562  -0.023  0.00  0.00     0.072 C 
ATOM      3  N1  <0> d           2.229  -1.697  -0.028  0.00  0.00    -0.196 NA
ATOM      4  H9  <0> d           2.350   1.197   0.929  0.00  0.00     0.075 H 
ENDROOT
BRANCH   1   5
ATOM      5  C2  <0> d           1.182   1.591  -0.001  0.00  0.00     0.148 C 
ATOM      6  O1  <0> d          -0.011   0.963   0.007  0.00  0.00    -0.224 OA
BRANCH   5   7
ATOM      7  C1  <0> d           1.241   3.097   0.007  0.00  0.00    -0.040 C 
ATOM      8  H2  <0> d           1.777   3.436   0.894  0.00  0.00     0.032 H 
ATOM      9  H3  <0> d           1.760   3.445  -0.886  0.00  0.00     0.032 H 
ATOM     10  H1  <0> d           0.312   3.467   0.018  0.00  0.00     0.032 H 
ENDBRANCH   5   7
ENDBRANCH   1   5
BRANCH   1  11
ATOM     11  C5  <0> d           3.640   1.560  -0.024  0.00  0.00    -0.037 A 
ATOM     12  C10 <0> d           4.507   1.430   1.060  0.00  0.00    -0.075 A 
ATOM     13  C9  <0> d           5.727   2.075   1.046  0.00  0.00    -0.082 A 
ATOM     14  H8  <0> d           4.225   0.825   1.908  0.00  0.00     0.084 H 
ATOM     15  C8  <0> d           6.090   2.850  -0.041  0.00  0.00    -0.083 A 
ATOM     16  H7  <0> d           6.400   1.974   1.885  0.00  0.00     0.083 H 
ATOM     17  C7  <0> d           5.234   2.983  -1.119  0.00  0.00    -0.082 A 
ATOM     18  H6  <0> d           7.046   3.353  -0.048  0.00  0.00     0.083 H 
ATOM     19  C6  <0> d           4.014   2.338  -1.119  0.00  0.00    -0.075 A 
ATOM     20  H5  <0> d           5.523   3.590  -1.965  0.00  0.00     0.083 H 
ATOM     21  H4  <0> d           3.348   2.440  -1.963  0.00  0.00     0.084 H 
ENDBRANCH   1  11
TORSDOF 3
