REMARK  5 active torsions:
REMARK  status: ('A' for Active; 'I' for Inactive)
REMARK    1  A    between atoms: C1_1  and  C2_2 
REMARK    2  A    between atoms: C2_2  and  C3_3 
REMARK    3  A    between atoms: C3_3  and  C4_4 
REMARK    4  A    between atoms: C4_4  and  C5_6 
REMARK    5  A    between atoms: C4_4  and  C6_7 
ROOT
ATOM      1  C3  <0> d          -2.479   0.930   0.019  0.00  0.00    -0.053 C 
ATOM      2  H7  <0> d          -2.367   0.252  -0.827  0.00  0.00     0.034 H 
ATOM      3  H8  <0> d          -2.461   0.359   0.947  0.00  0.00     0.034 H 
ENDROOT
BRANCH   1   4
ATOM      4  C2  <0> d          -3.811   1.673  -0.097  0.00  0.00    -0.068 C 
ATOM      5  H5  <0> d          -3.923   2.351   0.750  0.00  0.00     0.032 H 
ATOM      6  H6  <0> d          -3.829   2.244  -1.025  0.00  0.00     0.032 H 
BRANCH   4   7
ATOM      7  C1  <0> d          -4.960   0.663  -0.097  0.00  0.00    -0.076 C 
ATOM      8  H2  <0> d          -4.848  -0.015  -0.943  0.00  0.00     0.027 H 
ATOM      9  H3  <0> d          -4.942   0.092   0.832  0.00  0.00     0.027 H 
ATOM     10  H4  <0> d          -5.910   1.193  -0.179  0.00  0.00     0.027 H 
ENDBRANCH   4   7
ENDBRANCH   1   4
BRANCH   1  11
ATOM     11  C4  <0> d          -1.329   1.940   0.019  0.00  0.00     0.027 C 
ATOM     12  H1  <0> d          -1.400   2.570  -0.867  0.00  0.00     0.056 H 
BRANCH  11  13
ATOM     13  C5  <0> d          -1.417   2.811   1.273  0.00  0.00    -0.064 C 
ATOM     14  H9  <0> d          -2.368   3.344   1.281  0.00  0.00     0.028 H 
ATOM     15  H10 <0> d          -1.346   2.181   2.160  0.00  0.00     0.028 H 
ATOM     16  H11 <0> d          -0.598   3.531   1.273  0.00  0.00     0.028 H 
ENDBRANCH  11  13
BRANCH  11  17
ATOM     17  C6  <0> d          -0.014   1.204   0.009  0.00  0.00     0.176 C 
ATOM     18  O1  <0> d           0.002  -0.004   0.002  0.00  0.00    -0.648 OA
ATOM     19  O2  <0> d           1.139   1.891   0.001  0.00  0.00    -0.648 OA
ENDBRANCH  11  17
ENDBRANCH   1  11
TORSDOF 5
