REMARK  0 active torsions:
REMARK  status: ('A' for Active; 'I' for Inactive)
ROOT
ATOM      1  C1  <0> d          -1.079   1.900   0.017  0.00  0.00    -0.056 A 
ATOM      2  C2  <0> d          -0.013   1.076   0.008  0.00  0.00    -0.044 A 
ATOM      3  S1  <0> d           1.367   2.202   0.001  0.00  0.00    -0.112 SA
ATOM      4  C3  <0> d           0.509   3.706   0.017  0.00  0.00    -0.025 A 
ATOM      5  C4  <0> d          -0.814   3.316   0.028  0.00  0.00     0.051 A 
ATOM      6  C5  <0> d          -1.876   4.276   0.043  0.00  0.00     0.100 C 
ATOM      7  N1  <0> d          -2.719   5.037   0.056  0.00  0.00    -0.191 NA
ATOM      8  H1  <0> d          -2.089   1.515   0.018  0.00  0.00     0.086 H 
ATOM      9  H2  <0> d           0.002  -0.004   0.002  0.00  0.00     0.095 H 
ATOM     10  H3  <0> d           0.912   4.708   0.019  0.00  0.00     0.097 H 
ENDROOT
TORSDOF 0
