REMARK  2 active torsions:
REMARK  status: ('A' for Active; 'I' for Inactive)
REMARK    1  A    between atoms: C1_1  and  C2_2 
REMARK    2  A    between atoms: C8_9  and  N3_12 
ROOT
ATOM      1  C2  <0> d           0.002  -0.004   0.002  0.00  0.00    -0.060 A 
ATOM      2  C3  <0> d           0.006  -0.686  -1.206  0.00  0.00    -0.075 A 
ATOM      3  C4  <0> d           0.025  -2.065  -1.230  0.00  0.00    -0.054 A 
ATOM      4  C5  <0> d           0.041  -2.776  -0.040  0.00  0.00     0.076 A 
ATOM      5  C6  <0> d           0.037  -2.091   1.187  0.00  0.00     0.076 A 
ATOM      6  C7  <0> d           0.023  -0.694   1.194  0.00  0.00    -0.049 A 
ATOM      7  N1  <0> d           0.055  -3.029   2.169  0.00  0.00    -0.190 N 
ATOM      8  C8  <0> d           0.069  -4.225   1.635  0.00  0.00     0.676 A 
ATOM      9  N2  <0> d           0.061  -4.125   0.273  0.00  0.00    -0.190 N 
ATOM     10  H1  <0> d           0.068  -4.862  -0.357  0.00  0.00     0.184 HD
ATOM     11  H5  <0> d          -0.007  -0.133  -2.134  0.00  0.00     0.084 H 
ATOM     12  H6  <0> d           0.027  -2.590  -2.174  0.00  0.00     0.087 H 
ATOM     13  H7  <0> d           0.024  -0.157   2.131  0.00  0.00     0.087 H 
ATOM     14  H10 <0> d           0.057  -2.842   3.121  0.00  0.00     0.184 HD
ENDROOT
BRANCH   1  15
ATOM     15  C1  <0> d          -0.018   1.503   0.010  0.00  0.00    -0.051 C 
ATOM     16  H2  <0> d           1.004   1.880   0.003  0.00  0.00     0.033 H 
ATOM     17  H3  <0> d          -0.545   1.864  -0.873  0.00  0.00     0.033 H 
ATOM     18  H4  <0> d          -0.529   1.854   0.907  0.00  0.00     0.033 H 
ENDBRANCH   1  15
BRANCH   8  19
ATOM     19  N3  <0> d           0.089  -5.409   2.343  0.00  0.00    -0.234 N 
ATOM     20  H8  <0> d           0.093  -5.394   3.313  0.00  0.00     0.174 HD
ATOM     21  H9  <0> d           0.098  -6.256   1.871  0.00  0.00     0.174 HD
ENDBRANCH   8  19
TORSDOF 2
