REMARK  4 active torsions:
REMARK  status: ('A' for Active; 'I' for Inactive)
REMARK    1  A    between atoms: C3_3  and  C5_6 
REMARK    2  A    between atoms: C5_6  and  C6_7 
REMARK    3  A    between atoms: C6_7  and  C7_8 
REMARK    4  A    between atoms: C7_8  and  O1_9 
ROOT
ATOM      1  C5  <0> d           2.565   1.272  -0.015  0.00  0.00    -0.033 C 
ATOM      2  H4  <0> d           3.217   1.991   0.501  0.00  0.00     0.041 H 
ATOM      3  H5  <0> d           2.612   0.300   0.498  0.00  0.00     0.041 H 
ENDROOT
BRANCH   1   4
ATOM      4  C3  <0> d           1.146   1.780   0.001  0.00  0.00    -0.018 A 
ATOM      5  C2  <0> d          -0.013   1.076   0.008  0.00  0.00    -0.070 A 
ATOM      6  C1  <0> d          -1.213   1.761   0.017  0.00  0.00    -0.076 A 
ATOM      7  H2  <0> d           0.002  -0.004   0.002  0.00  0.00     0.085 H 
ATOM      8  C4  <0> d          -1.196   3.116   0.030  0.00  0.00    -0.045 A 
ATOM      9  H1  <0> d          -2.150   1.224   0.018  0.00  0.00     0.084 H 
ATOM     10  S1  <0> d           0.555   3.464   0.015  0.00  0.00    -0.106 SA
ATOM     11  H3  <0> d          -2.027   3.807   0.041  0.00  0.00     0.095 H 
ENDBRANCH   1   4
BRANCH   1  12
ATOM     12  C6  <0> d           3.031   1.107  -1.463  0.00  0.00    -0.041 C 
ATOM     13  H6  <0> d           2.378   0.388  -1.979  0.00  0.00     0.036 H 
ATOM     14  H7  <0> d           2.984   2.079  -1.976  0.00  0.00     0.036 H 
BRANCH  12  15
ATOM     15  C7  <0> d           4.472   0.592  -1.479  0.00  0.00     0.017 C 
ATOM     16  H8  <0> d           5.125   1.311  -0.963  0.00  0.00     0.073 H 
ATOM     17  H9  <0> d           4.519  -0.380  -0.966  0.00  0.00     0.073 H 
BRANCH  15  18
ATOM     18  O1  <0> d           4.907   0.438  -2.831  0.00  0.00    -0.401 OA
ATOM     19  H10 <0> d           5.924   0.074  -3.044  0.00  0.00     0.209 HD
ENDBRANCH  15  18
ENDBRANCH  12  15
ENDBRANCH   1  12
TORSDOF 4
