REMARK  0 active torsions:
REMARK  status: ('A' for Active; 'I' for Inactive)
ROOT
ATOM      1  C1  <0> d          -1.217   1.753   0.017  0.00  0.00    -0.079 A 
ATOM      2  C2  <0> d          -1.242   3.133   0.033  0.00  0.00    -0.050 A 
ATOM      3  C3  <0> d          -0.052   3.856   0.029  0.00  0.00     0.076 A 
ATOM      4  C4  <0> d           1.153   3.165   0.007  0.00  0.00    -0.001 A 
ATOM      5  C5  <0> d           1.176   1.787   0.000  0.00  0.00     0.043 A 
ATOM      6  C6  <0> d          -0.013   1.076   0.008  0.00  0.00    -0.061 A 
ATOM      7 Cl1  <0> d           2.693   0.944  -0.017  0.00  0.00    -0.084 Cl
ATOM      8  C7  <0> d           2.259   4.202  -0.016  0.00  0.00    -0.016 C 
ATOM      9  C8  <0> d           1.487   5.485  -0.404  0.00  0.00     0.030 C 
ATOM     10  O1  <0> d           0.152   5.202   0.048  0.00  0.00    -0.350 OA
ATOM     11  H1  <0> d          -2.145   1.200   0.016  0.00  0.00     0.083 H 
ATOM     12  H2  <0> d          -2.188   3.654   0.045  0.00  0.00     0.087 H 
ATOM     13  H3  <0> d           0.002  -0.004   0.002  0.00  0.00     0.086 H 
ATOM     14  H4  <0> d           2.726   4.263   0.979  0.00  0.00     0.043 H 
ATOM     15  H5  <0> d           3.017   3.913  -0.759  0.00  0.00     0.043 H 
ATOM     16  H6  <0> d           1.934   6.351   0.107  0.00  0.00     0.075 H 
ATOM     17  H7  <0> d           1.545   5.633  -1.492  0.00  0.00     0.075 H 
ENDROOT
TORSDOF 0
