REMARK  4 active torsions:
REMARK  status: ('A' for Active; 'I' for Inactive)
REMARK    1  A    between atoms: C1_1  and  C2_2 
REMARK    2  A    between atoms: C2_2  and  O1_3 
REMARK    3  A    between atoms: O1_3  and  C3_4 
REMARK    4  A    between atoms: C3_4  and  C4_6 
ROOT
ATOM      1  C4  <0> d          -2.881  -2.427   0.017  0.00  0.00     0.235 C 
ATOM      2  H1  <0> d          -3.520  -1.851   0.686  0.00  0.00     0.107 H 
ATOM      3  C5  <0> d          -3.462  -2.393  -1.399  0.00  0.00     0.057 C 
ATOM      4  O3  <0> d          -4.745  -3.026  -1.398  0.00  0.00    -0.387 OA
ATOM      5  C6  <0> d          -4.715  -4.385  -0.953  0.00  0.00     0.044 C 
ATOM      6  C7  <0> d          -4.147  -4.439   0.467  0.00  0.00     0.132 C 
ATOM      7  N1  <0> d          -2.813  -3.820   0.480  0.00  0.00     0.102 N 
ATOM      8  H7  <0> d          -3.568  -1.357  -1.725  0.00  0.00     0.078 H 
ATOM      9  H8  <0> d          -2.795  -2.922  -2.079  0.00  0.00     0.078 H 
ATOM     10  H9  <0> d          -5.727  -4.790  -0.956  0.00  0.00     0.076 H 
ATOM     11  H10 <0> d          -4.085  -4.972  -1.621  0.00  0.00     0.076 H 
ATOM     12  H11 <0> d          -4.806  -3.896   1.144  0.00  0.00     0.082 H 
ATOM     13  H12 <0> d          -4.069  -5.477   0.789  0.00  0.00     0.082 H 
ATOM     14  H13 <0> d          -2.162  -4.354  -0.074  0.00  0.00     0.317 HD
ENDROOT
BRANCH   1  15
ATOM     15  C3  <0> d          -1.496  -1.832   0.006  0.00  0.00     0.294 C 
ATOM     16  O2  <0> d          -0.528  -2.555  -0.007  0.00  0.00    -0.263 OA
BRANCH  15  17
ATOM     17  O1  <0> d          -1.339  -0.499   0.012  0.00  0.00    -0.320 OA
BRANCH  17  18
ATOM     18  C2  <0> d           0.002  -0.004   0.002  0.00  0.00     0.025 C 
ATOM     19  H5  <0> d           0.512  -0.356  -0.895  0.00  0.00     0.074 H 
ATOM     20  H6  <0> d           0.529  -0.365   0.885  0.00  0.00     0.074 H 
BRANCH  18  21
ATOM     21  C1  <0> d          -0.019   1.526   0.010  0.00  0.00    -0.056 C 
ATOM     22  H2  <0> d           1.004   1.903   0.003  0.00  0.00     0.030 H 
ATOM     23  H3  <0> d          -0.546   1.887  -0.873  0.00  0.00     0.030 H 
ATOM     24  H4  <0> d          -0.529   1.877   0.907  0.00  0.00     0.030 H 
ENDBRANCH  18  21
ENDBRANCH  17  18
ENDBRANCH  15  17
ENDBRANCH   1  15
TORSDOF 4
