REMARK  1 active torsions:
REMARK  status: ('A' for Active; 'I' for Inactive)
REMARK    1  A    between atoms: C3_3  and  C6_7 
REMARK       I    between atoms: C6_7  and  N2_9 
ROOT
ATOM      1  C1  <0> d          -0.115   3.841  -0.437  0.00  0.00    -0.047 C 
ATOM      2  C2  <0> d           1.218   3.246   0.022  0.00  0.00    -0.048 C 
ATOM      3  C3  <0> d           1.150   1.745   0.000  0.00  0.00     0.055 C 
ATOM      4  C4  <0> d          -0.013   1.076   0.008  0.00  0.00    -0.011 C 
ATOM      5  N1  <0> d          -1.215   1.725   0.017  0.00  0.00    -0.305 NA
ATOM      6  C5  <0> d          -1.249   3.159   0.341  0.00  0.00     0.014 C 
ATOM      7  H1  <0> d          -0.253   3.665  -1.514  0.00  0.00     0.035 H 
ATOM      8  H2  <0> d          -0.132   4.922  -0.237  0.00  0.00     0.035 H 
ATOM      9  H3  <0> d           2.020   3.580  -0.653  0.00  0.00     0.034 H 
ATOM     10  H4  <0> d           1.437   3.582   1.046  0.00  0.00     0.034 H 
ATOM     11  H5  <0> d           0.019  -0.024   0.007  0.00  0.00     0.108 H 
ATOM     12  H6  <0> d           0.313   1.030  -0.003  0.00  0.00     0.063 H 
ATOM     13  H7  <0> d          -1.096   3.311   1.420  0.00  0.00     0.067 H 
ATOM     14  H8  <0> d          -2.213   3.596   0.042  0.00  0.00     0.067 H 
ENDROOT
BRANCH   3  15
ATOM     15  C6  <0> d           2.358   1.009  -0.028  0.00  0.00     0.224 C 
ATOM     16  O1  <0> d           2.329  -0.208  -0.045  0.00  0.00    -0.273 OA
ATOM     17  N2  <0> d           3.540   1.655  -0.036  0.00  0.00    -0.370 N 
ATOM     18  H9  <0> d           3.566   2.755  -0.021  0.00  0.00     0.159 HD
ATOM     19  H10 <0> d           4.480   1.083  -0.058  0.00  0.00     0.159 HD
ENDBRANCH   3  15
TORSDOF 1
