REMARK  1 active torsions:
REMARK  status: ('A' for Active; 'I' for Inactive)
REMARK    1  A    between atoms: C1_1  and  N1_2 
ROOT
ATOM      1  N1  <0> d           1.141   1.907   0.001  0.00  0.00    -0.298 N 
ATOM      2  C2  <0> d           1.111   3.267   0.009  0.00  0.00     0.075 A 
ATOM      3  N2  <0> d          -0.032   3.903   0.022  0.00  0.00    -0.189 NA
ATOM      4  C3  <0> d          -1.192   3.224   0.030  0.00  0.00     0.351 A 
ATOM      5  O1  <0> d          -2.249   3.828   0.043  0.00  0.00    -0.244 OA
ATOM      6  N3  <0> d          -1.189   1.876   0.018  0.00  0.00    -0.259 N 
ATOM      7  H1  <0> d          -2.052   1.371   0.016  0.00  0.00     0.175 HD
ATOM      8  C4  <0> d          -0.014   1.211   0.009  0.00  0.00     0.331 A 
ATOM      9  O2  <0> d           0.002  -0.004   0.002  0.00  0.00    -0.246 OA
ATOM     10  H5  <0> d           2.036   3.825   0.002  0.00  0.00     0.144 H 
ENDROOT
BRANCH   1  11
ATOM     11  C1  <0> d           2.424   1.201  -0.014  0.00  0.00    -0.009 C 
ATOM     12  H2  <0> d           2.733   1.030  -1.045  0.00  0.00     0.057 H 
ATOM     13  H3  <0> d           3.177   1.802   0.496  0.00  0.00     0.057 H 
ATOM     14  H4  <0> d           2.318   0.243   0.497  0.00  0.00     0.057 H 
ENDBRANCH   1  11
TORSDOF 1
