REMARK  0 active torsions:
REMARK  status: ('A' for Active; 'I' for Inactive)
ROOT
ATOM      1  C1  <0> d          -0.784   3.131   1.200  0.00  0.00    -0.057 C 
ATOM      2  C2  <0> d          -1.546   3.623  -0.030  0.00  0.00    -0.052 C 
ATOM      3  C3  <0> d          -2.025   2.422  -0.864  0.00  0.00     0.020 C 
ATOM      4  H1  <0> d          -2.524   2.750  -1.666  0.00  0.00     0.058 H 
ATOM      5  C4  <0> d          -2.860   1.545   0.064  0.00  0.00    -0.095 C 
ATOM      6  C5  <0> d          -2.207   1.123   1.147  0.00  0.00    -0.102 C 
ATOM      7  C6  <0> d          -0.765   1.598   1.251  0.00  0.00    -0.032 C 
ATOM      8  H2  <0> d          -0.292   1.244   2.166  0.00  0.00     0.046 H 
ATOM      9  C7  <0> d          -0.013   1.086   0.008  0.00  0.00    -0.003 C 
ATOM     10  C8  <0> d          -0.779   1.605  -1.200  0.00  0.00     0.135 C 
ATOM     11  O1  <0> d          -0.430   1.388  -2.335  0.00  0.00    -0.297 OA
ATOM     12  H3  <0> d           0.241   3.500   1.158  0.00  0.00     0.034 H 
ATOM     13  H4  <0> d          -1.267   3.514   2.099  0.00  0.00     0.034 H 
ATOM     14  H5  <0> d          -0.890   4.247  -0.637  0.00  0.00     0.034 H 
ATOM     15  H6  <0> d          -2.408   4.208   0.290  0.00  0.00     0.034 H 
ATOM     16  H7  <0> d          -3.890   1.289  -0.139  0.00  0.00     0.077 H 
ATOM     17  H8  <0> d          -2.664   0.491   1.894  0.00  0.00     0.077 H 
ATOM     18  H9  <0> d           0.012   0.086   0.022  0.00  0.00     0.045 H 
ATOM     19  H10 <0> d           1.006   1.474   0.000  0.00  0.00     0.045 H 
ENDROOT
TORSDOF 0
