REMARK  2 active torsions:
REMARK  status: ('A' for Active; 'I' for Inactive)
REMARK    1  A    between atoms: C1_1  and  C2_2 
REMARK    2  A    between atoms: C7_7  and  C8_8 
ROOT
ATOM      1  C2  <0> d           2.385   1.417  -0.012  0.00  0.00    -0.055 A 
ATOM      2  C3  <0> d           2.396   0.034  -0.020  0.00  0.00    -0.077 A 
ATOM      3  C4  <0> d           1.208  -0.674  -0.013  0.00  0.00    -0.081 A 
ATOM      4  C5  <0> d           0.002  -0.004   0.002  0.00  0.00    -0.062 A 
ATOM      5  C6  <0> d          -0.017   1.392   0.010  0.00  0.00     0.051 A 
ATOM      6  C7  <0> d           1.187   2.100   0.002  0.00  0.00    -0.035 A 
ATOM      7  C9  <0> d          -1.265   2.094   0.019  0.00  0.00     0.100 C 
ATOM      8  N1  <0> d          -2.255   2.651   0.027  0.00  0.00    -0.191 NA
ATOM      9  H4  <0> d           3.337  -0.496  -0.032  0.00  0.00     0.084 H 
ATOM     10  H5  <0> d           1.224  -1.754  -0.019  0.00  0.00     0.083 H 
ATOM     11  H6  <0> d          -0.925  -0.558   0.008  0.00  0.00     0.085 H 
ENDROOT
BRANCH   6  12
ATOM     12  C8  <0> d           1.176   3.607   0.010  0.00  0.00    -0.049 C 
ATOM     13  H7  <0> d           1.183   3.965   1.039  0.00  0.00     0.033 H 
ATOM     14  H8  <0> d           2.059   3.979  -0.510  0.00  0.00     0.033 H 
ATOM     15  H9  <0> d           0.279   3.967  -0.494  0.00  0.00     0.033 H 
ENDBRANCH   6  12
BRANCH   1  16
ATOM     16  C1  <0> d           3.685   2.180  -0.019  0.00  0.00    -0.051 C 
ATOM     17  H1  <0> d           3.989   2.370  -1.048  0.00  0.00     0.033 H 
ATOM     18  H2  <0> d           3.552   3.129   0.501  0.00  0.00     0.033 H 
ATOM     19  H3  <0> d           4.453   1.593   0.485  0.00  0.00     0.033 H 
ENDBRANCH   1  16
TORSDOF 2
