REMARK  8 active torsions:
REMARK  status: ('A' for Active; 'I' for Inactive)
REMARK    1  A    between atoms: C1_1  and  C2_2 
REMARK    2  A    between atoms: C2_2  and  C3_3 
REMARK    3  A    between atoms: C3_3  and  C4_4 
REMARK    4  A    between atoms: C5_5  and  C6_6 
REMARK    5  A    between atoms: C6_6  and  C7_7 
REMARK    6  A    between atoms: C7_7  and  C8_9 
REMARK    7  A    between atoms: C7_7  and  O1_11 
REMARK    8  A    between atoms: C8_9  and  C9_10 
ROOT
ATOM      1  C6  <0> d          -0.013   1.086   0.008  0.00  0.00     0.015 C 
ATOM      2  H9  <0> d           0.002  -0.004   0.002  0.00  0.00     0.055 H 
ATOM      3  H10 <0> d           1.010   1.463   0.000  0.00  0.00     0.055 H 
ENDROOT
BRANCH   1   4
ATOM      4  C5  <0> d          -0.725   1.573  -1.185  0.00  0.00    -0.104 C 
ATOM      5  C4  <0> d          -1.292   1.962  -2.136  0.00  0.00    -0.107 C 
BRANCH   5   6
ATOM      6  C3  <0> d          -2.004   2.450  -3.328  0.00  0.00    -0.009 C 
ATOM      7  H7  <0> d          -1.494   2.098  -4.225  0.00  0.00     0.051 H 
ATOM      8  H8  <0> d          -3.027   2.073  -3.320  0.00  0.00     0.051 H 
BRANCH   6   9
ATOM      9  C2  <0> d          -2.025   3.980  -3.320  0.00  0.00    -0.059 C 
ATOM     10  H5  <0> d          -2.535   4.331  -2.423  0.00  0.00     0.033 H 
ATOM     11  H6  <0> d          -1.003   4.357  -3.328  0.00  0.00     0.033 H 
BRANCH   9  12
ATOM     12  C1  <0> d          -2.765   4.487  -4.559  0.00  0.00    -0.076 C 
ATOM     13  H2  <0> d          -2.780   5.577  -4.553  0.00  0.00     0.027 H 
ATOM     14  H3  <0> d          -2.255   4.135  -5.456  0.00  0.00     0.027 H 
ATOM     15  H4  <0> d          -3.788   4.109  -4.552  0.00  0.00     0.027 H 
ENDBRANCH   9  12
ENDBRANCH   6   9
ENDBRANCH   5   6
ENDBRANCH   1   4
BRANCH   1  16
ATOM     16  C7  <0> d          -0.729   1.579   1.267  0.00  0.00     0.045 C 
ATOM     17  H1  <0> d          -0.822   2.665   1.230  0.00  0.00     0.084 H 
BRANCH  16  18
ATOM     18  C8  <0> d           0.079   1.179   2.503  0.00  0.00    -0.044 C 
ATOM     19  H11 <0> d           0.097   0.092   2.589  0.00  0.00     0.036 H 
ATOM     20  H12 <0> d           1.098   1.553   2.408  0.00  0.00     0.036 H 
BRANCH  18  21
ATOM     21  C9  <0> d          -0.570   1.778   3.752  0.00  0.00    -0.074 C 
ATOM     22  H13 <0> d           0.005   1.492   4.633  0.00  0.00     0.027 H 
ATOM     23  H14 <0> d          -0.588   2.864   3.667  0.00  0.00     0.027 H 
ATOM     24  H15 <0> d          -1.590   1.404   3.847  0.00  0.00     0.027 H 
ENDBRANCH  18  21
ENDBRANCH  16  18
BRANCH  16  25
ATOM     25  O1  <0> d          -2.030   0.991   1.336  0.00  0.00    -0.395 OA
ATOM     26  H16 <0> d          -2.023   0.025   1.372  0.00  0.00     0.210 HD
ENDBRANCH  16  25
ENDBRANCH   1  16
TORSDOF 8
