REMARK  9 active torsions:
REMARK  status: ('A' for Active; 'I' for Inactive)
REMARK    1  A    between atoms: C1_1  and  C2_2 
REMARK    2  A    between atoms: C2_2  and  C3_3 
REMARK    3  A    between atoms: C3_3  and  C4_4 
REMARK    4  A    between atoms: C4_4  and  C5_6 
REMARK    5  A    between atoms: C4_4  and  C6_7 
REMARK    6  A    between atoms: C6_7  and  C7_9 
REMARK    7  A    between atoms: C6_7  and  O1_12 
REMARK    8  A    between atoms: C7_9  and  C8_10 
REMARK    9  A    between atoms: C7_9  and  C9_11 
ROOT
ATOM      1  C4  <0> d          -0.547   1.675   1.213  0.00  0.00    -0.032 C 
ATOM      2  H1  <0> d          -1.510   1.214   1.436  0.00  0.00     0.043 H 
ENDROOT
BRANCH   1   3
ATOM      3  C3  <0> d           0.493   1.200   2.229  0.00  0.00    -0.060 C 
ATOM      4  H8  <0> d           1.473   1.589   1.955  0.00  0.00     0.033 H 
ATOM      5  H9  <0> d           0.223   1.562   3.221  0.00  0.00     0.033 H 
BRANCH   3   6
ATOM      6  C2  <0> d           0.536  -0.330   2.239  0.00  0.00    -0.068 C 
ATOM      7  H6  <0> d          -0.445  -0.719   2.513  0.00  0.00     0.032 H 
ATOM      8  H7  <0> d           0.806  -0.692   1.246  0.00  0.00     0.032 H 
BRANCH   6   9
ATOM      9  C1  <0> d           1.576  -0.804   3.255  0.00  0.00    -0.077 C 
ATOM     10  H3  <0> d           2.556  -0.415   2.981  0.00  0.00     0.027 H 
ATOM     11  H4  <0> d           1.306  -0.443   4.247  0.00  0.00     0.027 H 
ATOM     12  H5  <0> d           1.607  -1.894   3.262  0.00  0.00     0.027 H 
ENDBRANCH   6   9
ENDBRANCH   3   6
ENDBRANCH   1   3
BRANCH   1  13
ATOM     13  C5  <0> d          -0.104   1.274  -0.196  0.00  0.00    -0.071 C 
ATOM     14  H10 <0> d          -0.104   0.187  -0.281  0.00  0.00     0.028 H 
ATOM     15  H11 <0> d           0.901   1.653  -0.382  0.00  0.00     0.028 H 
ATOM     16  H12 <0> d          -0.793   1.695  -0.927  0.00  0.00     0.028 H 
ENDBRANCH   1  13
BRANCH   1  17
ATOM     17  C6  <0> d          -0.680   3.197   1.292  0.00  0.00     0.041 C 
ATOM     18  H2  <0> d           0.301   3.654   1.160  0.00  0.00     0.084 H 
BRANCH  17  19
ATOM     19  C7  <0> d          -1.247   3.589   2.657  0.00  0.00    -0.036 C 
ATOM     20  H13 <0> d          -0.625   3.164   3.445  0.00  0.00     0.042 H 
BRANCH  19  21
ATOM     21  C8  <0> d          -1.261   5.114   2.785  0.00  0.00    -0.071 C 
ATOM     22  H14 <0> d          -1.883   5.539   1.998  0.00  0.00     0.028 H 
ATOM     23  H15 <0> d          -1.665   5.393   3.758  0.00  0.00     0.028 H 
ATOM     24  H16 <0> d          -0.244   5.496   2.690  0.00  0.00     0.028 H 
ENDBRANCH  19  21
BRANCH  19  25
ATOM     25  C9  <0> d          -2.674   3.054   2.790  0.00  0.00    -0.071 C 
ATOM     26  H17 <0> d          -3.074   3.324   3.768  0.00  0.00     0.028 H 
ATOM     27  H18 <0> d          -3.299   3.487   2.009  0.00  0.00     0.028 H 
ATOM     28  H19 <0> d          -2.665   1.968   2.688  0.00  0.00     0.028 H 
ENDBRANCH  19  25
ENDBRANCH  17  19
BRANCH  17  29
ATOM     29  O1  <0> d          -1.560   3.652   0.262  0.00  0.00    -0.395 OA
ATOM     30  H20 <0> d          -2.452   3.285   0.316  0.00  0.00     0.210 HD
ENDBRANCH  17  29
ENDBRANCH   1  17
TORSDOF 9
