REMARK  0 active torsions:
REMARK  status: ('A' for Active; 'I' for Inactive)
ROOT
ATOM      1  C1  <0> d           0.002  -0.004   0.002  0.00  0.00     0.035 A 
ATOM      2  C2  <0> d          -0.017   1.416   0.010  0.00  0.00     0.121 A 
ATOM      3  C3  <0> d           1.220   2.066   0.002  0.00  0.00     0.160 A 
ATOM      4  N1  <0> d           1.171   3.455   0.009  0.00  0.00    -0.324 N 
ATOM      5  H1  <0> d           1.900   4.094   0.006  0.00  0.00     0.168 HD
ATOM      6  P1  <0> d          -0.632   3.756   0.028  0.00  0.00     0.186 P 
ATOM      7  N2  <0> d          -1.155   2.164   0.019  0.00  0.00    -0.226 NA
ATOM      8  N3  <0> d           2.341   1.325  -0.013  0.00  0.00    -0.222 NA
ATOM      9  C4  <0> d           2.296   0.016  -0.020  0.00  0.00     0.088 A 
ATOM     10  N4  <0> d           1.150  -0.641  -0.012  0.00  0.00    -0.252 NA
ATOM     11  H2  <0> d          -0.925  -0.558   0.008  0.00  0.00     0.118 H 
ATOM     12  H3  <0> d           3.222  -0.541  -0.032  0.00  0.00     0.146 H 
ENDROOT
TORSDOF 0
