REMARK  3 active torsions:
REMARK  status: ('A' for Active; 'I' for Inactive)
REMARK    1  A    between atoms: C1_1  and  C2_2 
REMARK    2  A    between atoms: C6_7  and  C7_9 
REMARK    3  A    between atoms: C7_9  and  C8_11 
ROOT
ATOM      1  C2  <0> d          -2.168   1.781  -0.687  0.00  0.00    -0.048 C 
ATOM      2  H1  <0> d          -2.429   2.821  -0.884  0.00  0.00     0.040 H 
ATOM      3  C3  <0> d          -2.263   1.488   0.824  0.00  0.00    -0.061 C 
ATOM      4  C4  <0> d          -0.810   1.666   1.340  0.00  0.00    -0.064 C 
ATOM      5  C5  <0> d           0.034   1.074   0.184  0.00  0.00    -0.055 C 
ATOM      6  C6  <0> d          -0.707   1.518  -1.095  0.00  0.00     0.007 C 
ATOM      7  H2  <0> d          -0.310   2.355  -1.470  0.00  0.00     0.052 H 
ATOM      8  H6  <0> d          -2.930   2.201   1.310  0.00  0.00     0.033 H 
ATOM      9  H7  <0> d          -2.608   0.468   0.994  0.00  0.00     0.033 H 
ATOM     10  H8  <0> d          -0.652   1.103   2.260  0.00  0.00     0.033 H 
ATOM     11  H9  <0> d          -0.578   2.721   1.486  0.00  0.00     0.033 H 
ATOM     12  H10 <0> d           0.062  -0.014   0.250  0.00  0.00     0.034 H 
ATOM     13  H11 <0> d           1.044   1.483   0.200  0.00  0.00     0.034 H 
ENDROOT
BRANCH   6  14
ATOM     14  C7  <0> d          -0.648   0.425  -2.131  0.00  0.00     0.127 C 
ATOM     15  O1  <0> d          -0.559  -0.729  -1.787  0.00  0.00    -0.298 OA
BRANCH  14  16
ATOM     16  C8  <0> d          -0.701   0.773  -3.596  0.00  0.00    -0.021 C 
ATOM     17  H12 <0> d           0.228   0.917  -3.938  0.00  0.00     0.037 H 
ATOM     18  H13 <0> d          -1.167  -0.043  -4.147  0.00  0.00     0.037 H 
ATOM     19  H14 <0> d          -1.284   1.684  -3.733  0.00  0.00     0.037 H 
ENDBRANCH  14  16
ENDBRANCH   6  14
BRANCH   1  20
ATOM     20  C1  <0> d          -3.104   0.851  -1.462  0.00  0.00    -0.072 C 
ATOM     21  H3  <0> d          -2.842  -0.186  -1.250  0.00  0.00     0.028 H 
ATOM     22  H4  <0> d          -4.134   1.035  -1.156  0.00  0.00     0.028 H 
ATOM     23  H5  <0> d          -3.002   1.040  -2.530  0.00  0.00     0.028 H 
ENDBRANCH   1  20
TORSDOF 3
