REMARK  4 active torsions:
REMARK  status: ('A' for Active; 'I' for Inactive)
REMARK    1  A    between atoms: C1_1  and  N1_2 
REMARK    2  A    between atoms: C2_3  and  C6_9 
REMARK    3  A    between atoms: C6_9  and  O3_11 
REMARK    4  A    between atoms: O3_11  and  C7_12 
ROOT
ATOM      1  N1  <0> d          -0.016   1.340   0.009  0.00  0.00    -0.342 N 
ATOM      2  C2  <0> d           1.344   1.892  -0.001  0.00  0.00     0.098 C 
ATOM      3  H1  <0> d           1.423   2.712   0.713  0.00  0.00     0.088 H 
ATOM      4  C3  <0> d           2.265   0.725   0.420  0.00  0.00    -0.029 C 
ATOM      5  C4  <0> d           1.429  -0.505  -0.004  0.00  0.00     0.012 C 
ATOM      6  C5  <0> d           0.002  -0.004   0.002  0.00  0.00     0.220 C 
ATOM      7  O1  <0> d          -0.983  -0.712   0.000  0.00  0.00    -0.273 OA
ATOM      8  H5  <0> d           2.433   0.730   1.497  0.00  0.00     0.037 H 
ATOM      9  H6  <0> d           3.210   0.760  -0.121  0.00  0.00     0.037 H 
ATOM     10  H7  <0> d           1.552  -1.316   0.714  0.00  0.00     0.047 H 
ATOM     11  H8  <0> d           1.714  -0.835  -1.003  0.00  0.00     0.047 H 
ENDROOT
BRANCH   2  12
ATOM     12  C6  <0> d           1.704   2.367  -1.385  0.00  0.00     0.281 C 
ATOM     13  O2  <0> d           1.077   1.974  -2.340  0.00  0.00    -0.263 OA
BRANCH  12  14
ATOM     14  O3  <0> d           2.720   3.227  -1.556  0.00  0.00    -0.325 OA
BRANCH  14  15
ATOM     15  C7  <0> d           3.010   3.642  -2.917  0.00  0.00     0.013 C 
ATOM     16  H9  <0> d           3.261   2.768  -3.517  0.00  0.00     0.067 H 
ATOM     17  H10 <0> d           2.135   4.135  -3.341  0.00  0.00     0.067 H 
ATOM     18  H11 <0> d           3.851   4.335  -2.914  0.00  0.00     0.067 H 
ENDBRANCH  14  15
ENDBRANCH  12  14
ENDBRANCH   2  12
BRANCH   1  19
ATOM     19  C1  <0> d          -1.237   2.150   0.020  0.00  0.00    -0.015 C 
ATOM     20  H2  <0> d          -2.108   1.495   0.021  0.00  0.00     0.056 H 
ATOM     21  H3  <0> d          -1.251   2.775   0.913  0.00  0.00     0.056 H 
ATOM     22  H4  <0> d          -1.260   2.784  -0.867  0.00  0.00     0.056 H 
ENDBRANCH   1  19
TORSDOF 4
