REMARK  6 active torsions:
REMARK  status: ('A' for Active; 'I' for Inactive)
REMARK    1  A    between atoms: C1_1  and  C2_2 
REMARK    2  A    between atoms: C2_2  and  C3_4 
REMARK    3  A    between atoms: C2_2  and  N1_8 
REMARK    4  A    between atoms: C3_4  and  O2_6 
REMARK    5  A    between atoms: O2_6  and  C4_7 
REMARK       I    between atoms: N1_8  and  C5_9 
REMARK    6  A    between atoms: C5_9  and  C6_11 
ROOT
ATOM      1  C2  <0> d          -1.290   1.681   0.017  0.00  0.00     0.092 C 
ATOM      2  H1  <0> d          -1.193   2.590   0.611  0.00  0.00     0.087 H 
ENDROOT
BRANCH   1   3
ATOM      3  C1  <0> d          -1.680   2.047  -1.416  0.00  0.00    -0.049 C 
ATOM      4  H2  <0> d          -1.777   1.139  -2.010  0.00  0.00     0.030 H 
ATOM      5  H3  <0> d          -2.631   2.580  -1.409  0.00  0.00     0.030 H 
ATOM      6  H4  <0> d          -0.910   2.685  -1.850  0.00  0.00     0.030 H 
ENDBRANCH   1   3
BRANCH   1   7
ATOM      7  C3  <0> d          -2.354   0.799   0.618  0.00  0.00     0.281 C 
ATOM      8  O1  <0> d          -2.073  -0.313   0.999  0.00  0.00    -0.263 OA
BRANCH   7   9
ATOM      9  O2  <0> d          -3.614   1.249   0.730  0.00  0.00    -0.325 OA
BRANCH   9  10
ATOM     10  C4  <0> d          -4.586   0.345   1.318  0.00  0.00     0.013 C 
ATOM     11  H5  <0> d          -5.561   0.831   1.350  0.00  0.00     0.067 H 
ATOM     12  H6  <0> d          -4.651  -0.561   0.716  0.00  0.00     0.067 H 
ATOM     13  H7  <0> d          -4.276   0.087   2.331  0.00  0.00     0.067 H 
ENDBRANCH   9  10
ENDBRANCH   7   9
ENDBRANCH   1   7
BRANCH   1  14
ATOM     14  N1  <0> d          -0.011   0.966   0.007  0.00  0.00    -0.348 N 
ATOM     15  C5  <0> d           1.147   1.655  -0.000  0.00  0.00     0.214 C 
ATOM     16  O3  <0> d           1.130   2.868   0.007  0.00  0.00    -0.274 OA
ATOM     17  H8  <0> d           0.002  -0.004   0.002  0.00  0.00     0.163 HD
BRANCH  15  18
ATOM     18  C6  <0> d           2.462   0.920  -0.017  0.00  0.00    -0.003 C 
ATOM     19  H9  <0> d           2.277  -0.154  -0.021  0.00  0.00     0.040 H 
ATOM     20  H10 <0> d           3.021   1.196  -0.910  0.00  0.00     0.040 H 
ATOM     21  H11 <0> d           3.038   1.186   0.870  0.00  0.00     0.040 H 
ENDBRANCH  15  18
ENDBRANCH   1  14
TORSDOF 6
