REMARK  8 active torsions:
REMARK  status: ('A' for Active; 'I' for Inactive)
REMARK    1  A    between atoms: C1_1  and  C2_2 
REMARK    2  A    between atoms: C2_2  and  C3_3 
REMARK    3  A    between atoms: C2_2  and  C4_4 
REMARK    4  A    between atoms: C2_2  and  C5_5 
REMARK    5  A    between atoms: C5_5  and  C6_6 
REMARK    6  A    between atoms: C6_6  and  C7_7 
REMARK    7  A    between atoms: C7_7  and  C8_8 
REMARK    8  A    between atoms: C8_8  and  O1_9 
ROOT
ATOM      1  C5  <0> d           2.393   5.250   0.007  0.00  0.00    -0.059 C 
ATOM      2  H10 <0> d           1.839   5.569  -0.876  0.00  0.00     0.034 H 
ATOM      3  H11 <0> d           1.856   5.559   0.904  0.00  0.00     0.034 H 
ENDROOT
BRANCH   1   4
ATOM      4  C2  <0> d           3.782   5.891  -0.002  0.00  0.00    -0.051 C 
BRANCH   4   5
ATOM      5  C1  <0> d           4.535   5.457  -1.261  0.00  0.00    -0.070 C 
ATOM      6  H1  <0> d           3.981   5.776  -2.144  0.00  0.00     0.028 H 
ATOM      7  H2  <0> d           5.525   5.914  -1.268  0.00  0.00     0.028 H 
ATOM      8  H3  <0> d           4.636   4.372  -1.268  0.00  0.00     0.028 H 
ENDBRANCH   4   5
BRANCH   4   9
ATOM      9  C3  <0> d           3.640   7.415   0.007  0.00  0.00    -0.070 C 
ATOM     10  H4  <0> d           3.103   7.724   0.904  0.00  0.00     0.028 H 
ATOM     11  H5  <0> d           4.630   7.871   0.000  0.00  0.00     0.028 H 
ATOM     12  H6  <0> d           3.086   7.734  -0.876  0.00  0.00     0.028 H 
ENDBRANCH   4   9
BRANCH   4  13
ATOM     13  C4  <0> d           4.559   5.443   1.237  0.00  0.00    -0.070 C 
ATOM     14  H7  <0> d           4.660   4.358   1.230  0.00  0.00     0.028 H 
ATOM     15  H8  <0> d           5.548   5.900   1.230  0.00  0.00     0.028 H 
ATOM     16  H9  <0> d           4.022   5.753   2.134  0.00  0.00     0.028 H 
ENDBRANCH   4  13
ENDBRANCH   1   4
BRANCH   1  17
ATOM     17  C6  <0> d           2.534   3.726  -0.002  0.00  0.00    -0.062 C 
ATOM     18  H12 <0> d           3.088   3.407   0.881  0.00  0.00     0.033 H 
ATOM     19  H13 <0> d           3.071   3.417  -0.899  0.00  0.00     0.033 H 
BRANCH  17  20
ATOM     20  C7  <0> d           1.145   3.085   0.008  0.00  0.00    -0.045 C 
ATOM     21  H14 <0> d           0.591   3.404  -0.875  0.00  0.00     0.036 H 
ATOM     22  H15 <0> d           0.608   3.395   0.904  0.00  0.00     0.036 H 
BRANCH  20  23
ATOM     23  C8  <0> d           1.286   1.562  -0.002  0.00  0.00     0.017 C 
ATOM     24  H16 <0> d           1.840   1.243   0.881  0.00  0.00     0.073 H 
ATOM     25  H17 <0> d           1.823   1.252  -0.899  0.00  0.00     0.073 H 
BRANCH  23  26
ATOM     26  O1  <0> d          -0.011   0.963   0.007  0.00  0.00    -0.401 OA
ATOM     27  H18 <0> d           0.002  -0.004   0.002  0.00  0.00     0.209 HD
ENDBRANCH  23  26
ENDBRANCH  20  23
ENDBRANCH  17  20
ENDBRANCH   1  17
TORSDOF 8
