REMARK  2 active torsions:
REMARK  status: ('A' for Active; 'I' for Inactive)
REMARK    1  A    between atoms: C4_4  and  C7_7 
REMARK    2  A    between atoms: C7_7  and  N1_8 
REMARK       I    between atoms: N1_8  and  C8_9 
REMARK       I    between atoms: C8_9  and  N2_11 
ROOT
ATOM      1  C1  <0> d          -2.904   1.556   0.038  0.00  0.00    -0.065 C 
ATOM      2  C2  <0> d          -2.188   1.063  -1.221  0.00  0.00    -0.065 C 
ATOM      3  C3  <0> d          -0.753   1.593  -1.232  0.00  0.00    -0.060 C 
ATOM      4  C4  <0> d          -0.013   1.086   0.008  0.00  0.00    -0.039 C 
ATOM      5  C5  <0> d          -0.729   1.579   1.267  0.00  0.00    -0.060 C 
ATOM      6  C6  <0> d          -2.164   1.050   1.278  0.00  0.00    -0.065 C 
ATOM      7  H1  <0> d          -3.936   1.176   0.046  0.00  0.00     0.033 H 
ATOM      8  H2  <0> d          -2.919   2.656   0.044  0.00  0.00     0.033 H 
ATOM      9  H3  <0> d          -2.173  -0.037  -1.227  0.00  0.00     0.033 H 
ATOM     10  H4  <0> d          -2.720   1.427  -2.112  0.00  0.00     0.033 H 
ATOM     11  H5  <0> d          -0.238   1.238  -2.136  0.00  0.00     0.033 H 
ATOM     12  H6  <0> d          -0.768   2.693  -1.225  0.00  0.00     0.033 H 
ATOM     13  H7  <0> d           0.002  -0.014   0.002  0.00  0.00     0.042 H 
ATOM     14  H8  <0> d          -0.197   1.215   2.158  0.00  0.00     0.033 H 
ATOM     15  H9  <0> d          -0.744   2.679   1.273  0.00  0.00     0.033 H 
ATOM     16  H10 <0> d          -2.679   1.405   2.183  0.00  0.00     0.033 H 
ATOM     17  H11 <0> d          -2.149  -0.050   1.272  0.00  0.00     0.033 H 
ENDROOT
BRANCH   4  18
ATOM     18  C7  <0> d           1.423   1.615  -0.003  0.00  0.00     0.000 C 
ATOM     19  H12 <0> d           1.909   1.336  -0.949  0.00  0.00     0.064 H 
ATOM     20  H13 <0> d           1.410   2.711   0.094  0.00  0.00     0.064 H 
BRANCH  18  21
ATOM     21  N1  <0> d           2.166   1.035   1.118  0.00  0.00    -0.343 N 
ATOM     22  C8  <0> d           3.460   1.360   1.310  0.00  0.00     0.313 C 
ATOM     23  O1  <0> d           4.010   2.135   0.551  0.00  0.00    -0.248 OA
ATOM     24  N2  <0> d           4.143   0.826   2.341  0.00  0.00    -0.352 N 
ATOM     25  H15 <0> d           5.199   1.092   2.497  0.00  0.00     0.160 HD
ATOM     26  H16 <0> d           3.645   0.125   3.027  0.00  0.00     0.160 HD
ATOM     27  H14 <0> d           1.668   0.334   1.804  0.00  0.00     0.164 HD
ENDBRANCH  18  21
ENDBRANCH   4  18
TORSDOF 2
