REMARK  3 active torsions:
REMARK  status: ('A' for Active; 'I' for Inactive)
REMARK    1  A    between atoms: C1_1  and  O1_2 
REMARK    2  A    between atoms: O1_2  and  C2_3 
REMARK    3  A    between atoms: C2_3  and  C3_4 
ROOT
ATOM      1  C3  <0> d           0.613  -2.097  -1.041  0.00  0.00     0.059 C 
ATOM      2  H1  <0> d          -0.415  -2.433  -0.907  0.00  0.00     0.086 H 
ATOM      3  C4  <0> d           1.206  -2.718  -2.321  0.00  0.00    -0.037 C 
ATOM      4  C5  <0> d           2.385  -3.583  -1.811  0.00  0.00    -0.043 C 
ATOM      5  C6  <0> d           2.010  -3.799  -0.323  0.00  0.00     0.020 C 
ATOM      6  O2  <0> d           1.419  -2.537   0.065  0.00  0.00    -0.384 OA
ATOM      7  H7  <0> d           0.465  -3.340  -2.821  0.00  0.00     0.036 H 
ATOM      8  H8  <0> d           1.567  -1.938  -2.991  0.00  0.00     0.036 H 
ATOM      9  H9  <0> d           2.427  -4.534  -2.343  0.00  0.00     0.036 H 
ATOM     10  H10 <0> d           3.329  -3.046  -1.901  0.00  0.00     0.036 H 
ATOM     11  H11 <0> d           1.285  -4.606  -0.222  0.00  0.00     0.074 H 
ATOM     12  H12 <0> d           2.900  -4.004   0.271  0.00  0.00     0.074 H 
ENDROOT
BRANCH   1  13
ATOM     13  C2  <0> d           0.652  -0.570  -1.138  0.00  0.00     0.043 C 
ATOM     14  H5  <0> d           0.139  -0.251  -2.045  0.00  0.00     0.078 H 
ATOM     15  H6  <0> d           1.688  -0.234  -1.169  0.00  0.00     0.078 H 
BRANCH  13  16
ATOM     16  O1  <0> d           0.002  -0.004   0.002  0.00  0.00    -0.393 OA
BRANCH  16  17
ATOM     17  C1  <0> d          -0.017   1.425   0.010  0.00  0.00     0.004 C 
ATOM     18  H2  <0> d           1.005   1.802   0.002  0.00  0.00     0.066 H 
ATOM     19  H3  <0> d          -0.544   1.786  -0.873  0.00  0.00     0.066 H 
ATOM     20  H4  <0> d          -0.527   1.776   0.907  0.00  0.00     0.066 H 
ENDBRANCH  16  17
ENDBRANCH  13  16
ENDBRANCH   1  13
TORSDOF 3
