REMARK  7 active torsions:
REMARK  status: ('A' for Active; 'I' for Inactive)
REMARK    1  A    between atoms: C1_1  and  C2_2 
REMARK    2  A    between atoms: C2_2  and  C3_3 
REMARK    3  A    between atoms: C4_4  and  C5_5 
REMARK    4  A    between atoms: C5_5  and  C6_6 
REMARK    5  A    between atoms: C6_6  and  C7_8 
REMARK    6  A    between atoms: C6_6  and  O1_10 
REMARK    7  A    between atoms: C7_8  and  C8_9 
ROOT
ATOM      1  C5  <0> d          -0.013   1.086   0.008  0.00  0.00     0.015 C 
ATOM      2  H7  <0> d           0.002  -0.004   0.002  0.00  0.00     0.055 H 
ATOM      3  H8  <0> d           1.010   1.463   0.000  0.00  0.00     0.055 H 
ENDROOT
BRANCH   1   4
ATOM      4  C4  <0> d          -0.725   1.573  -1.185  0.00  0.00    -0.104 C 
ATOM      5  C3  <0> d          -1.292   1.962  -2.136  0.00  0.00    -0.107 C 
BRANCH   5   6
ATOM      6  C2  <0> d          -2.004   2.450  -3.328  0.00  0.00    -0.013 C 
ATOM      7  H5  <0> d          -1.494   2.098  -4.225  0.00  0.00     0.051 H 
ATOM      8  H6  <0> d          -3.027   2.073  -3.320  0.00  0.00     0.051 H 
BRANCH   6   9
ATOM      9  C1  <0> d          -2.025   3.980  -3.320  0.00  0.00    -0.067 C 
ATOM     10  H2  <0> d          -1.003   4.357  -3.328  0.00  0.00     0.028 H 
ATOM     11  H3  <0> d          -2.552   4.341  -4.203  0.00  0.00     0.028 H 
ATOM     12  H4  <0> d          -2.535   4.331  -2.423  0.00  0.00     0.028 H 
ENDBRANCH   6   9
ENDBRANCH   5   6
ENDBRANCH   1   4
BRANCH   1  13
ATOM     13  C6  <0> d          -0.729   1.579   1.267  0.00  0.00     0.045 C 
ATOM     14  H1  <0> d          -0.822   2.665   1.230  0.00  0.00     0.084 H 
BRANCH  13  15
ATOM     15  C7  <0> d           0.079   1.179   2.503  0.00  0.00    -0.044 C 
ATOM     16  H9  <0> d           0.097   0.092   2.589  0.00  0.00     0.036 H 
ATOM     17  H10 <0> d           1.098   1.553   2.408  0.00  0.00     0.036 H 
BRANCH  15  18
ATOM     18  C8  <0> d          -0.570   1.778   3.752  0.00  0.00    -0.074 C 
ATOM     19  H11 <0> d          -0.588   2.864   3.667  0.00  0.00     0.027 H 
ATOM     20  H12 <0> d          -1.590   1.404   3.847  0.00  0.00     0.027 H 
ATOM     21  H13 <0> d           0.005   1.492   4.633  0.00  0.00     0.027 H 
ENDBRANCH  15  18
ENDBRANCH  13  15
BRANCH  13  22
ATOM     22  O1  <0> d          -2.030   0.991   1.336  0.00  0.00    -0.395 OA
ATOM     23  H14 <0> d          -2.023   0.025   1.372  0.00  0.00     0.210 HD
ENDBRANCH  13  22
ENDBRANCH   1  13
TORSDOF 7
