REMARK  5 active torsions:
REMARK  status: ('A' for Active; 'I' for Inactive)
REMARK    1  A    between atoms: C1_1  and  C2_2 
REMARK    2  A    between atoms: C2_2  and  C3_3 
REMARK    3  A    between atoms: C3_3  and  C4_4 
REMARK    4  A    between atoms: C4_4  and  N1_5 
REMARK    5  A    between atoms: C7_8  and  N2_9 
ROOT
ATOM      1  C4  <0> d          -0.013   1.086   0.008  0.00  0.00    -0.001 C 
ATOM      2  H8  <0> d           0.002  -0.004   0.002  0.00  0.00     0.064 H 
ATOM      3  H9  <0> d           1.010   1.463   0.000  0.00  0.00     0.064 H 
ENDROOT
BRANCH   1   4
ATOM      4  C3  <0> d          -0.753   1.593  -1.232  0.00  0.00    -0.050 C 
ATOM      5  H6  <0> d          -1.775   1.215  -1.224  0.00  0.00     0.035 H 
ATOM      6  H7  <0> d          -0.767   2.683  -1.226  0.00  0.00     0.035 H 
BRANCH   4   7
ATOM      7  C2  <0> d          -0.037   1.099  -2.490  0.00  0.00    -0.067 C 
ATOM      8  H4  <0> d           0.986   1.476  -2.498  0.00  0.00     0.032 H 
ATOM      9  H5  <0> d          -0.022   0.009  -2.496  0.00  0.00     0.032 H 
BRANCH   7  10
ATOM     10  C1  <0> d          -0.777   1.606  -3.730  0.00  0.00    -0.076 C 
ATOM     11  H1  <0> d          -1.799   1.229  -3.722  0.00  0.00     0.027 H 
ATOM     12  H2  <0> d          -0.791   2.696  -3.724  0.00  0.00     0.027 H 
ATOM     13  H3  <0> d          -0.266   1.254  -4.627  0.00  0.00     0.027 H 
ENDBRANCH   7  10
ENDBRANCH   4   7
ENDBRANCH   1   4
BRANCH   1  14
ATOM     14  N1  <0> d          -0.698   1.558   1.213  0.00  0.00    -0.366 N 
ATOM     15  C9  <0> d          -1.679   0.784   1.750  0.00  0.00    -0.019 A 
ATOM     16  C8  <0> d          -2.344   1.167   2.857  0.00  0.00    -0.041 A 
ATOM     17  H14 <0> d          -1.929  -0.155   1.279  0.00  0.00     0.111 H 
ATOM     18  C7  <0> d          -1.988   2.447   3.482  0.00  0.00     0.050 A 
ATOM     19  H13 <0> d          -3.121   0.545   3.275  0.00  0.00     0.089 H 
ATOM     20  C6  <0> d          -0.921   3.237   2.855  0.00  0.00    -0.041 A 
ATOM     21  C5  <0> d          -0.324   2.749   1.751  0.00  0.00    -0.019 A 
ATOM     22  H11 <0> d          -0.619   4.186   3.272  0.00  0.00     0.089 H 
ATOM     23  H10 <0> d           0.466   3.317   1.281  0.00  0.00     0.111 H 
BRANCH  18  24
ATOM     24  N2  <0> d          -2.607   2.874   4.569  0.00  0.00    -0.300 NA
ATOM     25  H12 <0> d          -2.359   3.722   4.968  0.00  0.00     0.187 HD
ENDBRANCH  18  24
ENDBRANCH   1  14
TORSDOF 5
