REMARK  3 active torsions:
REMARK  status: ('A' for Active; 'I' for Inactive)
REMARK    1  A    between atoms: C1_1  and  C2_2 
REMARK    2  A    between atoms: C2_2  and  C3_3 
REMARK    3  A    between atoms: C3_3  and  C5_7 
ROOT
ATOM      1  C3  <0> d          -2.164   1.050   1.278  0.00  0.00     0.113 C 
ATOM      2  H1  <0> d          -2.664   1.336   0.353  0.00  0.00     0.079 H 
ATOM      3  C4  <0> d          -2.145  -0.418   1.391  0.00  0.00     0.074 C 
ATOM      4  N1  <0> d          -2.130  -1.550   1.478  0.00  0.00    -0.196 NA
ENDROOT
BRANCH   1   5
ATOM      5  C2  <0> d          -0.729   1.579   1.267  0.00  0.00    -0.044 C 
ATOM      6  H5  <0> d          -0.202   1.218   2.150  0.00  0.00     0.035 H 
ATOM      7  H6  <0> d          -0.744   2.669   1.273  0.00  0.00     0.035 H 
BRANCH   5   8
ATOM      8  C1  <0> d          -0.013   1.086   0.008  0.00  0.00    -0.075 C 
ATOM      9  H2  <0> d           0.002  -0.004   0.002  0.00  0.00     0.027 H 
ATOM     10  H3  <0> d           1.010   1.463   0.000  0.00  0.00     0.027 H 
ATOM     11  H4  <0> d          -0.540   1.447  -0.875  0.00  0.00     0.027 H 
ENDBRANCH   5   8
ENDBRANCH   1   5
BRANCH   1  12
ATOM     12  C5  <0> d          -2.906   1.634   2.452  0.00  0.00     0.191 C 
ATOM     13  O1  <0> d          -2.345   2.396   3.203  0.00  0.00    -0.647 OA
ATOM     14  O2  <0> d          -4.191   1.308   2.663  0.00  0.00    -0.647 OA
ENDBRANCH   1  12
TORSDOF 3
