REMARK  1 active torsions:
REMARK  status: ('A' for Active; 'I' for Inactive)
REMARK    1  A    between atoms: C4_6  and  N3_7 
ROOT
ATOM      1  C1  <0> d          -1.198   3.518   0.033  0.00  0.00    -0.036 A 
ATOM      2  C2  <0> d           0.041   4.128   0.024  0.00  0.00     0.026 A 
ATOM      3  N1  <0> d           1.143   3.396   0.009  0.00  0.00    -0.161 NA
ATOM      4  N2  <0> d           1.120   2.113   0.003  0.00  0.00    -0.137 NA
ATOM      5  C3  <0> d          -0.017   1.428   0.010  0.00  0.00     0.184 A 
ATOM      6  C4  <0> d          -1.242   2.121   0.019  0.00  0.00     0.069 A 
ATOM      7  C5  <0> d           0.002  -0.004   0.002  0.00  0.00     0.124 C 
ATOM      8  N4  <0> d           0.018  -1.140  -0.004  0.00  0.00    -0.190 NA
ATOM      9  H1  <0> d          -2.106   4.103   0.045  0.00  0.00     0.089 H 
ATOM     10  H2  <0> d           0.111   5.205   0.029  0.00  0.00     0.117 H 
ENDROOT
BRANCH   6  11
ATOM     11  N3  <0> d          -2.451   1.441   0.021  0.00  0.00    -0.397 N 
ATOM     12  H3  <0> d          -2.463   0.342   0.010  0.00  0.00     0.156 HD
ATOM     13  H4  <0> d          -3.397   2.002   0.033  0.00  0.00     0.156 HD
ENDBRANCH   6  11
TORSDOF 1
