REMARK  2 active torsions:
REMARK  status: ('A' for Active; 'I' for Inactive)
REMARK    1  A    between atoms: C1_1  and  N1_2 
REMARK    2  A    between atoms: C5_6  and  N3_11 
ROOT
ATOM      1  N1  <0> d           1.254   1.808  -0.000  0.00  0.00    -0.284 N 
ATOM      2  C2  <0> d          -0.017   1.378   0.010  0.00  0.00     0.010 A 
ATOM      3  C3  <0> d           0.002  -0.004   0.002  0.00  0.00     0.014 A 
ATOM      4  C4  <0> d          -0.987  -1.011   0.006  0.00  0.00    -0.044 A 
ATOM      5  C5  <0> d          -0.611  -2.321  -0.004  0.00  0.00     0.026 A 
ATOM      6  C6  <0> d           0.740  -2.696  -0.019  0.00  0.00    -0.055 A 
ATOM      7  C7  <0> d           1.736  -1.777  -0.024  0.00  0.00    -0.051 A 
ATOM      8  C8  <0> d           1.418  -0.401  -0.014  0.00  0.00     0.088 A 
ATOM      9  N2  <0> d           2.127   0.714  -0.014  0.00  0.00    -0.173 NA
ATOM     10  H4  <0> d          -0.898   2.002   0.017  0.00  0.00     0.115 H 
ATOM     11  H5  <0> d          -2.034  -0.746   0.018  0.00  0.00     0.088 H 
ATOM     12  H6  <0> d           0.993  -3.746  -0.026  0.00  0.00     0.087 H 
ATOM     13  H7  <0> d           2.768  -2.095  -0.036  0.00  0.00     0.087 H 
ENDROOT
BRANCH   1  14
ATOM     14  C1  <0> d           1.667   3.213   0.003  0.00  0.00     0.002 C 
ATOM     15  H1  <0> d           1.779   3.557   1.031  0.00  0.00     0.059 H 
ATOM     16  H2  <0> d           2.618   3.314  -0.519  0.00  0.00     0.059 H 
ATOM     17  H3  <0> d           0.910   3.815  -0.501  0.00  0.00     0.059 H 
ENDBRANCH   1  14
BRANCH   5  18
ATOM     18  N3  <0> d          -1.596  -3.314   0.000  0.00  0.00    -0.399 N 
ATOM     19  H8  <0> d          -1.341  -4.250  -0.007  0.00  0.00     0.156 HD
ATOM     20  H9  <0> d          -2.534  -3.067   0.010  0.00  0.00     0.156 HD
ENDBRANCH   5  18
TORSDOF 2
