REMARK  1 active torsions:
REMARK  status: ('A' for Active; 'I' for Inactive)
REMARK    1  A    between atoms: C1_1  and  C2_2 
ROOT
ATOM      1  C2  <0> d           1.197   1.772   0.000  0.00  0.00    -0.060 A 
ATOM      2  C3  <0> d          -0.013   1.076   0.008  0.00  0.00    -0.075 A 
ATOM      3  C4  <0> d          -1.208   1.721   0.017  0.00  0.00    -0.051 A 
ATOM      4  C5  <0> d          -1.236   3.127   0.031  0.00  0.00     0.109 A 
ATOM      5  C6  <0> d           0.039   3.860   0.023  0.00  0.00     0.109 A 
ATOM      6  C7  <0> d           1.240   3.130   0.007  0.00  0.00    -0.045 A 
ATOM      7  N1  <0> d          -0.307   5.137   0.033  0.00  0.00    -0.155 NA
ATOM      8  N2  <0> d          -1.592   5.220   0.046  0.00  0.00    -0.196 N 
ATOM      9  H1  <0> d          -2.091   6.087   0.056  0.00  0.00     0.213 HD
ATOM     10  N3  <0> d          -2.166   4.068   0.045  0.00  0.00    -0.155 NA
ATOM     11  H5  <0> d           0.002  -0.004   0.002  0.00  0.00     0.084 H 
ATOM     12  H6  <0> d          -2.130   1.159   0.019  0.00  0.00     0.087 H 
ATOM     13  H7  <0> d           2.189   3.644   0.002  0.00  0.00     0.088 H 
ENDROOT
BRANCH   1  14
ATOM     14  C1  <0> d           2.489   0.997  -0.016  0.00  0.00    -0.051 C 
ATOM     15  H2  <0> d           2.791   0.816  -1.048  0.00  0.00     0.033 H 
ATOM     16  H3  <0> d           3.263   1.571   0.493  0.00  0.00     0.033 H 
ATOM     17  H4  <0> d           2.348   0.044   0.494  0.00  0.00     0.033 H 
ENDBRANCH   1  14
TORSDOF 1
