REMARK  3 active torsions:
REMARK  status: ('A' for Active; 'I' for Inactive)
REMARK    1  A    between atoms: C1_1  and  C2_2 
REMARK    2  A    between atoms: C5_5  and  O1_9 
REMARK    3  A    between atoms: O1_9  and  C8_10 
ROOT
ATOM      1  C2  <0> d           1.176   1.782   0.000  0.00  0.00    -0.023 A 
ATOM      2  C3  <0> d          -0.013   1.076   0.008  0.00  0.00    -0.072 A 
ATOM      3  C4  <0> d          -1.219   1.749   0.017  0.00  0.00    -0.050 A 
ATOM      4  C5  <0> d          -1.238   3.137   0.029  0.00  0.00     0.071 A 
ATOM      5  C6  <0> d          -0.046   3.845   0.021  0.00  0.00    -0.013 A 
ATOM      6  C7  <0> d           1.160   3.167   0.007  0.00  0.00     0.124 A 
ATOM      7  F1  <0> d           2.322   3.856  -0.001  0.00  0.00    -0.205 F 
ATOM      8  H4  <0> d           0.002  -0.004   0.002  0.00  0.00     0.084 H 
ATOM      9  H5  <0> d          -2.146   1.196   0.019  0.00  0.00     0.087 H 
ATOM     10  H6  <0> d          -0.059   4.925   0.026  0.00  0.00     0.092 H 
ENDROOT
BRANCH   4  11
ATOM     11  O1  <0> d          -2.424   3.800   0.043  0.00  0.00    -0.356 OA
BRANCH  11  12
ATOM     12  C8  <0> d          -3.612   3.006   0.051  0.00  0.00     0.010 C 
ATOM     13  H7  <0> d          -3.636   2.381  -0.842  0.00  0.00     0.066 H 
ATOM     14  H8  <0> d          -3.620   2.373   0.938  0.00  0.00     0.066 H 
ATOM     15  H9  <0> d          -4.485   3.658   0.061  0.00  0.00     0.066 H 
ENDBRANCH  11  12
ENDBRANCH   4  11
BRANCH   1  16
ATOM     16  C1  <0> d           2.490   1.045  -0.016  0.00  0.00    -0.048 C 
ATOM     17  H1  <0> d           2.797   0.872  -1.047  0.00  0.00     0.033 H 
ATOM     18  H2  <0> d           3.247   1.641   0.494  0.00  0.00     0.033 H 
ATOM     19  H3  <0> d           2.376   0.088   0.494  0.00  0.00     0.033 H 
ENDBRANCH   1  16
TORSDOF 3
