REMARK  2 active torsions:
REMARK  status: ('A' for Active; 'I' for Inactive)
REMARK    1  A    between atoms: C2_2  and  C3_3 
REMARK    2  A    between atoms: C7_7  and  C9_9 
ROOT
ATOM      1  C3  <0> d           3.664   2.008  -0.023  0.00  0.00    -0.036 A 
ATOM      2  C4  <0> d           3.633   3.404  -0.015  0.00  0.00    -0.073 A 
ATOM      3  C5  <0> d           2.424   4.071  -0.000  0.00  0.00    -0.081 A 
ATOM      4  C6  <0> d           1.238   3.363   0.003  0.00  0.00    -0.066 A 
ATOM      5  C7  <0> d           1.255   1.967   0.001  0.00  0.00     0.041 A 
ATOM      6  C8  <0> d           2.473   1.288  -0.015  0.00  0.00    -0.057 A 
ATOM      7  H4  <0> d           4.556   3.964  -0.021  0.00  0.00     0.084 H 
ATOM      8  H5  <0> d           2.405   5.151   0.005  0.00  0.00     0.083 H 
ATOM      9  H6  <0> d           0.295   3.891   0.010  0.00  0.00     0.085 H 
ATOM     10  H7  <0> d           2.491   0.208  -0.020  0.00  0.00     0.086 H 
ENDROOT
BRANCH   1  11
ATOM     11  C2  <0> d           4.960   1.297  -0.039  0.00  0.00    -0.082 C 
ATOM     12  C1  <0> d           6.093   1.984  -0.047  0.00  0.00    -0.120 C 
ATOM     13  H1  <0> d           7.040   1.464  -0.059  0.00  0.00     0.066 H 
ATOM     14  H2  <0> d           6.070   3.064  -0.041  0.00  0.00     0.066 H 
ATOM     15  H3  <0> d           4.983   0.217  -0.045  0.00  0.00     0.083 H 
ENDBRANCH   1  11
BRANCH   5  16
ATOM     16  C9  <0> d          -0.014   1.210   0.009  0.00  0.00     0.209 C 
ATOM     17  O1  <0> d           0.002  -0.004   0.002  0.00  0.00    -0.644 OA
ATOM     18  O2  <0> d          -1.190   1.868   0.018  0.00  0.00    -0.644 OA
ENDBRANCH   5  16
TORSDOF 2
