REMARK  3 active torsions:
REMARK  status: ('A' for Active; 'I' for Inactive)
REMARK    1  A    between atoms: C1_1  and  C2_2 
REMARK    2  A    between atoms: C2_2  and  C3_3 
REMARK    3  A    between atoms: C2_2  and  C4_4 
ROOT
ATOM      1  C4  <0> d          -1.379  -0.514   0.013  0.00  0.00    -0.096 C 
ATOM      2  C5  <0> d          -2.480  -0.920   0.021  0.00  0.00    -0.152 C 
ATOM      3  H7  <0> d          -3.465  -1.283   0.028  0.00  0.00     0.166 H 
ENDROOT
BRANCH   1   4
ATOM      4  C2  <0> d           0.002  -0.004   0.002  0.00  0.00     0.073 C 
ATOM      5 Br1  <0> d           0.922  -0.638  -1.615  0.00  0.00    -0.072 Br
BRANCH   4   6
ATOM      6  C1  <0> d          -0.019   1.526   0.010  0.00  0.00    -0.050 C 
ATOM      7  H1  <0> d           1.004   1.903   0.003  0.00  0.00     0.030 H 
ATOM      8  H2  <0> d          -0.546   1.887  -0.873  0.00  0.00     0.030 H 
ATOM      9  H3  <0> d          -0.529   1.877   0.907  0.00  0.00     0.030 H 
ENDBRANCH   4   6
BRANCH   4  10
ATOM     10  C3  <0> d           0.742  -0.511   1.242  0.00  0.00    -0.050 C 
ATOM     11  H4  <0> d           0.232  -0.159   2.138  0.00  0.00     0.030 H 
ATOM     12  H5  <0> d           0.757  -1.601   1.236  0.00  0.00     0.030 H 
ATOM     13  H6  <0> d           1.765  -0.134   1.234  0.00  0.00     0.030 H 
ENDBRANCH   4  10
ENDBRANCH   1   4
TORSDOF 3
