REMARK  3 active torsions:
REMARK  status: ('A' for Active; 'I' for Inactive)
REMARK    1  A    between atoms: C1_1  and  C2_2 
REMARK    2  A    between atoms: C2_2  and  N1_3 
REMARK    3  A    between atoms: N1_3  and  C3_4 
ROOT
ATOM      1  C3  <0> d           1.139  -0.684  -0.013  0.00  0.00     0.124 A 
ATOM      2  C4  <0> d           2.361  -0.019  -0.020  0.00  0.00    -0.018 A 
ATOM      3  C5  <0> d           2.374   1.365  -0.013  0.00  0.00     0.039 A 
ATOM      4  C6  <0> d           1.159   2.040   0.002  0.00  0.00    -0.045 A 
ATOM      5  C7  <0> d          -0.016   1.316   0.009  0.00  0.00     0.006 A 
ATOM      6  N2  <0> d           0.002  -0.004   0.002  0.00  0.00    -0.244 NA
ATOM      7 Cl1  <0> d           3.874   2.238  -0.021  0.00  0.00    -0.084 Cl
ATOM      8  H7  <0> d           3.286  -0.576  -0.032  0.00  0.00     0.092 H 
ATOM      9  H8  <0> d           1.134   3.119   0.008  0.00  0.00     0.088 H 
ATOM     10  H9  <0> d          -0.962   1.836   0.017  0.00  0.00     0.114 H 
ENDROOT
BRANCH   1  11
ATOM     11  N1  <0> d           1.110  -2.073  -0.020  0.00  0.00    -0.375 N 
ATOM     12  H6  <0> d           0.146  -2.604  -0.013  0.00  0.00     0.161 HD
BRANCH  11  13
ATOM     13  C2  <0> d           2.363  -2.832  -0.036  0.00  0.00    -0.009 C 
ATOM     14  H4  <0> d           2.954  -2.583   0.858  0.00  0.00     0.063 H 
ATOM     15  H5  <0> d           2.937  -2.573  -0.938  0.00  0.00     0.063 H 
BRANCH  13  16
ATOM     16  C1  <0> d           2.053  -4.330  -0.041  0.00  0.00    -0.061 C 
ATOM     17  H1  <0> d           2.994  -4.899  -0.053  0.00  0.00     0.029 H 
ATOM     18  H2  <0> d           1.462  -4.579  -0.935  0.00  0.00     0.029 H 
ATOM     19  H3  <0> d           1.479  -4.589   0.861  0.00  0.00     0.029 H 
ENDBRANCH  13  16
ENDBRANCH  11  13
ENDBRANCH   1  11
TORSDOF 3
