REMARK  4 active torsions:
REMARK  status: ('A' for Active; 'I' for Inactive)
REMARK    1  A    between atoms: C1_1  and  N1_2 
REMARK    2  A    between atoms: C4_5  and  C5_7 
REMARK    3  A    between atoms: C5_7  and  O2_9 
REMARK    4  A    between atoms: O2_9  and  C6_10 
ROOT
ATOM      1  N1  <0> d          -0.656   3.155   0.025  0.00  0.00    -0.285 N 
ATOM      2  C2  <0> d          -1.101   1.880   0.017  0.00  0.00     0.000 A 
ATOM      3  C3  <0> d          -0.013   1.076   0.008  0.00  0.00    -0.031 A 
ATOM      4  C4  <0> d           1.102   1.948   0.002  0.00  0.00     0.153 A 
ATOM      5  N2  <0> d           0.628   3.178   0.013  0.00  0.00    -0.167 NA
ATOM      6  H4  <0> d          -2.133   1.562   0.019  0.00  0.00     0.114 H 
ATOM      7  H5  <0> d           0.002  -0.004   0.002  0.00  0.00     0.089 H 
ENDROOT
BRANCH   4   8
ATOM      8  C5  <0> d           2.525   1.555  -0.013  0.00  0.00     0.313 C 
ATOM      9  O1  <0> d           2.830   0.379  -0.022  0.00  0.00    -0.257 OA
BRANCH   8  10
ATOM     10  O2  <0> d           3.485   2.500  -0.017  0.00  0.00    -0.321 OA
BRANCH  10  11
ATOM     11  C6  <0> d           4.862   2.041  -0.033  0.00  0.00     0.013 C 
ATOM     12  H6  <0> d           5.532   2.900  -0.034  0.00  0.00     0.067 H 
ATOM     13  H7  <0> d           5.053   1.434   0.853  0.00  0.00     0.067 H 
ATOM     14  H8  <0> d           5.036   1.443  -0.927  0.00  0.00     0.067 H 
ENDBRANCH  10  11
ENDBRANCH   8  10
ENDBRANCH   4   8
BRANCH   1  15
ATOM     15  C1  <0> d          -1.515   4.342   0.038  0.00  0.00     0.002 C 
ATOM     16  H1  <0> d          -1.737   4.642  -0.986  0.00  0.00     0.059 H 
ATOM     17  H2  <0> d          -2.444   4.112   0.559  0.00  0.00     0.059 H 
ATOM     18  H3  <0> d          -1.002   5.156   0.551  0.00  0.00     0.059 H 
ENDBRANCH   1  15
TORSDOF 4
