REMARK  4 active torsions:
REMARK  status: ('A' for Active; 'I' for Inactive)
REMARK    1  A    between atoms: C1_1  and  C2_2 
REMARK    2  A    between atoms: C2_2  and  O1_3 
REMARK    3  A    between atoms: O1_3  and  C3_4 
REMARK    4  A    between atoms: C4_5  and  C7_10 
ROOT
ATOM      1  C3  <0> d           0.004   1.807   2.413  0.00  0.00     0.189 A 
ATOM      2  C4  <0> d          -0.718   1.572   1.248  0.00  0.00     0.083 A 
ATOM      3  N1  <0> d          -2.021   1.780   1.228  0.00  0.00    -0.260 NA
ATOM      4  C5  <0> d          -2.642   2.201   2.317  0.00  0.00     0.019 A 
ATOM      5  C6  <0> d          -1.926   2.436   3.476  0.00  0.00     0.022 A 
ATOM      6  N2  <0> d          -0.620   2.235   3.501  0.00  0.00    -0.234 NA
ATOM      7  H6  <0> d          -3.709   2.366   2.300  0.00  0.00     0.117 H 
ATOM      8  H7  <0> d          -2.435   2.784   4.363  0.00  0.00     0.117 H 
ENDROOT
BRANCH   1   9
ATOM      9  O1  <0> d           1.345   1.600   2.436  0.00  0.00    -0.333 OA
BRANCH   9  10
ATOM     10  C2  <0> d           2.022   1.862   3.666  0.00  0.00     0.024 C 
ATOM     11  H4  <0> d           1.883   2.908   3.942  0.00  0.00     0.074 H 
ATOM     12  H5  <0> d           1.613   1.223   4.449  0.00  0.00     0.074 H 
BRANCH  10  13
ATOM     13  C1  <0> d           3.515   1.573   3.499  0.00  0.00    -0.056 C 
ATOM     14  H1  <0> d           3.654   0.528   3.224  0.00  0.00     0.030 H 
ATOM     15  H2  <0> d           3.923   2.212   2.717  0.00  0.00     0.030 H 
ATOM     16  H3  <0> d           4.031   1.774   4.438  0.00  0.00     0.030 H 
ENDBRANCH  10  13
ENDBRANCH   9  10
ENDBRANCH   1   9
BRANCH   2  17
ATOM     17  C7  <0> d          -0.013   1.086   0.008  0.00  0.00    -0.031 C 
ATOM     18  H8  <0> d           0.002  -0.004   0.002  0.00  0.00     0.035 H 
ATOM     19  H9  <0> d           1.010   1.463   0.000  0.00  0.00     0.035 H 
ATOM     20  H10 <0> d          -0.540   1.447  -0.875  0.00  0.00     0.035 H 
ENDBRANCH   2  17
TORSDOF 4
