REMARK  0 active torsions:
REMARK  status: ('A' for Active; 'I' for Inactive)
ROOT
ATOM      1  C1  <0> d          -1.271   1.424  -2.268  0.00  0.00    -0.119 C 
ATOM      2  C2  <0> d          -0.942   1.684  -1.027  0.00  0.00    -0.087 C 
ATOM      3  C3  <0> d          -0.013   1.086   0.008  0.00  0.00    -0.030 C 
ATOM      4  C4  <0> d          -0.935   1.682   1.083  0.00  0.00     0.037 C 
ATOM      5  C5  <0> d          -1.321   2.717   0.013  0.00  0.00    -0.030 C 
ATOM      6  C6  <0> d          -2.041   0.793   1.476  0.00  0.00     0.064 C 
ATOM      7  N1  <0> d          -2.895   0.108   1.780  0.00  0.00    -0.197 NA
ATOM      8  H1  <0> d          -0.821   0.587  -2.782  0.00  0.00     0.067 H 
ATOM      9  H2  <0> d          -1.992   2.046  -2.777  0.00  0.00     0.067 H 
ATOM     10  H3  <0> d           0.002  -0.004   0.002  0.00  0.00     0.041 H 
ATOM     11  H4  <0> d           0.986   1.522   0.001  0.00  0.00     0.041 H 
ATOM     12  H5  <0> d          -0.403   2.105   1.935  0.00  0.00     0.063 H 
ATOM     13  H6  <0> d          -0.677   3.597   0.008  0.00  0.00     0.041 H 
ATOM     14  H7  <0> d          -2.381   2.970   0.010  0.00  0.00     0.041 H 
ENDROOT
TORSDOF 0
