REMARK  0 active torsions:
REMARK  status: ('A' for Active; 'I' for Inactive)
ROOT
ATOM      1  C1  <0> d          -0.016   1.306   0.009  0.00  0.00    -0.119 C 
ATOM      2  C2  <0> d           0.002  -0.004   0.002  0.00  0.00    -0.089 C 
ATOM      3  C3  <0> d          -1.286  -0.797   0.004  0.00  0.00    -0.045 C 
ATOM      4  C4  <0> d          -1.230  -1.819  -1.137  0.00  0.00    -0.062 C 
ATOM      5  C5  <0> d           0.034  -2.669  -0.997  0.00  0.00    -0.065 C 
ATOM      6  C6  <0> d           1.272  -1.785  -1.149  0.00  0.00    -0.062 C 
ATOM      7  C7  <0> d           1.311  -0.762  -0.015  0.00  0.00    -0.045 C 
ATOM      8  H1  <0> d           0.912   1.859   0.003  0.00  0.00     0.067 H 
ATOM      9  H2  <0> d          -0.958   1.833   0.017  0.00  0.00     0.067 H 
ATOM     10  H3  <0> d          -1.395  -1.317   0.956  0.00  0.00     0.039 H 
ATOM     11  H4  <0> d          -2.130  -0.125  -0.148  0.00  0.00     0.039 H 
ATOM     12  H5  <0> d          -2.109  -2.463  -1.091  0.00  0.00     0.033 H 
ATOM     13  H6  <0> d          -1.212  -1.296  -2.093  0.00  0.00     0.033 H 
ATOM     14  H7  <0> d           0.045  -3.143  -0.015  0.00  0.00     0.033 H 
ATOM     15  H8  <0> d           0.040  -3.438  -1.769  0.00  0.00     0.033 H 
ATOM     16  H9  <0> d           2.168  -2.405  -1.112  0.00  0.00     0.033 H 
ATOM     17  H10 <0> d           1.231  -1.262  -2.105  0.00  0.00     0.033 H 
ATOM     18  H11 <0> d           2.135  -0.067  -0.178  0.00  0.00     0.039 H 
ATOM     19  H12 <0> d           1.447  -1.278   0.936  0.00  0.00     0.039 H 
ENDROOT
TORSDOF 0
