REMARK  5 active torsions:
REMARK  status: ('A' for Active; 'I' for Inactive)
REMARK    1  A    between atoms: C1_1  and  C2_2 
REMARK    2  A    between atoms: C2_2  and  C3_4 
REMARK    3  A    between atoms: C2_2  and  C5_7 
REMARK    4  A    between atoms: C3_4  and  C4_5 
REMARK    5  A    between atoms: C4_5  and  O1_6 
ROOT
ATOM      1  C2  <0> d          -0.729   1.579   1.267  0.00  0.00    -0.030 C 
ATOM      2  H1  <0> d          -0.822   2.665   1.230  0.00  0.00     0.046 H 
ENDROOT
BRANCH   1   3
ATOM      3  C1  <0> d          -2.121   0.950   1.341  0.00  0.00    -0.069 C 
ATOM      4  H2  <0> d          -2.632   1.301   2.238  0.00  0.00     0.028 H 
ATOM      5  H3  <0> d          -2.697   1.235   0.460  0.00  0.00     0.028 H 
ATOM      6  H4  <0> d          -2.028  -0.136   1.378  0.00  0.00     0.028 H 
ENDBRANCH   1   3
BRANCH   1   7
ATOM      7  C3  <0> d          -0.013   1.086   0.008  0.00  0.00    -0.039 C 
ATOM      8  H5  <0> d           0.002  -0.004   0.002  0.00  0.00     0.037 H 
ATOM      9  H6  <0> d           1.010   1.463   0.000  0.00  0.00     0.037 H 
BRANCH   7  10
ATOM     10  C4  <0> d          -0.753   1.593  -1.232  0.00  0.00     0.017 C 
ATOM     11  H7  <0> d          -1.775   1.215  -1.224  0.00  0.00     0.074 H 
ATOM     12  H8  <0> d          -0.767   2.683  -1.226  0.00  0.00     0.074 H 
BRANCH  10  13
ATOM     13  O1  <0> d          -0.084   1.132  -2.407  0.00  0.00    -0.401 OA
ATOM     14  H9  <0> d          -0.499   1.416  -3.233  0.00  0.00     0.209 HD
ENDBRANCH  10  13
ENDBRANCH   7  10
ENDBRANCH   1   7
BRANCH   1  15
ATOM     15  C5  <0> d           0.067   1.185   2.485  0.00  0.00    -0.054 A 
ATOM     16  C10 <0> d           0.546   2.157   3.342  0.00  0.00    -0.076 A 
ATOM     17  C9  <0> d           1.275   1.795   4.459  0.00  0.00    -0.082 A 
ATOM     18  H14 <0> d           0.351   3.200   3.139  0.00  0.00     0.084 H 
ATOM     19  C8  <0> d           1.525   0.461   4.719  0.00  0.00    -0.083 A 
ATOM     20  H13 <0> d           1.651   2.555   5.128  0.00  0.00     0.083 H 
ATOM     21  C7  <0> d           1.045  -0.512   3.862  0.00  0.00    -0.082 A 
ATOM     22  H12 <0> d           2.096   0.178   5.591  0.00  0.00     0.083 H 
ATOM     23  C6  <0> d           0.312  -0.150   2.747  0.00  0.00    -0.076 A 
ATOM     24  H11 <0> d           1.240  -1.555   4.064  0.00  0.00     0.083 H 
ATOM     25  H10 <0> d          -0.067  -0.910   2.080  0.00  0.00     0.084 H 
ENDBRANCH   1  15
TORSDOF 5
