REMARK  2 active torsions:
REMARK  status: ('A' for Active; 'I' for Inactive)
REMARK    1  A    between atoms: C1_1  and  C2_2 
REMARK    2  A    between atoms: C2_2  and  C3_4 
ROOT
ATOM      1  C3  <0> d          -1.262  -0.757   0.010  0.00  0.00     0.049 A 
ATOM      2  C4  <0> d          -2.489  -0.087   0.019  0.00  0.00     0.017 A 
ATOM      3  N1  <0> d          -3.619  -0.762   0.026  0.00  0.00    -0.272 NA
ATOM      4  C5  <0> d          -3.644  -2.082   0.024  0.00  0.00     0.003 A 
ATOM      5  C6  <0> d          -2.476  -2.820   0.015  0.00  0.00    -0.044 A 
ATOM      6  C7  <0> d          -1.257  -2.161   0.003  0.00  0.00     0.050 A 
ATOM      7 Cl1  <0> d           0.235  -3.047  -0.016  0.00  0.00    -0.083 Cl
ATOM      8  H4  <0> d          -2.510   0.993   0.022  0.00  0.00     0.116 H 
ATOM      9  H5  <0> d          -4.595  -2.594   0.030  0.00  0.00     0.114 H 
ATOM     10  H6  <0> d          -2.512  -3.899   0.014  0.00  0.00     0.088 H 
ENDROOT
BRANCH   1  11
ATOM     11  C2  <0> d           0.002  -0.004   0.002  0.00  0.00     0.158 C 
ATOM     12  O1  <0> d           1.060  -0.596  -0.011  0.00  0.00    -0.293 OA
BRANCH  11  13
ATOM     13  C1  <0> d          -0.018   1.503   0.010  0.00  0.00    -0.016 C 
ATOM     14  H1  <0> d           1.004   1.880   0.003  0.00  0.00     0.038 H 
ATOM     15  H2  <0> d          -0.545   1.864  -0.873  0.00  0.00     0.038 H 
ATOM     16  H3  <0> d          -0.529   1.854   0.907  0.00  0.00     0.038 H 
ENDBRANCH  11  13
ENDBRANCH   1  11
TORSDOF 2
