REMARK  4 active torsions:
REMARK  status: ('A' for Active; 'I' for Inactive)
REMARK    1  A    between atoms: C1_1  and  C2_2 
REMARK    2  A    between atoms: C2_2  and  C3_3 
REMARK    3  A    between atoms: C4_4  and  C8_10 
REMARK    4  A    between atoms: C6_8  and  C7_9 
ROOT
ATOM      1  C3  <0> d           0.000   1.080   2.488  0.00  0.00    -0.029 A 
ATOM      2  C4  <0> d          -0.244  -0.129   3.168  0.00  0.00    -0.038 A 
ATOM      3  C5  <0> d           0.625  -0.195   4.198  0.00  0.00    -0.017 A 
ATOM      4  N1  <0> d           1.389   0.933   4.184  0.00  0.00    -0.368 N 
ATOM      5  H1  <0> d           2.092   1.147   4.816  0.00  0.00     0.165 HD
ATOM      6  C6  <0> d           1.002   1.712   3.133  0.00  0.00     0.011 A 
ATOM      7  H7  <0> d           0.698  -1.001   4.913  0.00  0.00     0.112 H 
ENDROOT
BRANCH   1   8
ATOM      8  C2  <0> d          -0.729   1.579   1.267  0.00  0.00    -0.042 C 
ATOM      9  H5  <0> d          -0.744   2.669   1.273  0.00  0.00     0.039 H 
ATOM     10  H6  <0> d          -1.751   1.202   1.275  0.00  0.00     0.039 H 
BRANCH   8  11
ATOM     11  C1  <0> d          -0.013   1.086   0.008  0.00  0.00    -0.073 C 
ATOM     12  H2  <0> d           0.002  -0.004   0.002  0.00  0.00     0.028 H 
ATOM     13  H3  <0> d           1.010   1.463   0.000  0.00  0.00     0.028 H 
ATOM     14  H4  <0> d          -0.540   1.447  -0.875  0.00  0.00     0.028 H 
ENDBRANCH   8  11
ENDBRANCH   1   8
BRANCH   6  15
ATOM     15  C7  <0> d           1.591   3.047   2.758  0.00  0.00    -0.037 C 
ATOM     16  H8  <0> d           1.047   3.841   3.270  0.00  0.00     0.035 H 
ATOM     17  H9  <0> d           2.640   3.076   3.053  0.00  0.00     0.035 H 
ATOM     18  H10 <0> d           1.512   3.189   1.680  0.00  0.00     0.035 H 
ENDBRANCH   6  15
BRANCH   2  19
ATOM     19  C8  <0> d          -1.282  -1.161   2.809  0.00  0.00    -0.049 C 
ATOM     20  H11 <0> d          -0.850  -1.887   2.120  0.00  0.00     0.033 H 
ATOM     21  H12 <0> d          -1.614  -1.672   3.713  0.00  0.00     0.033 H 
ATOM     22  H13 <0> d          -2.132  -0.671   2.335  0.00  0.00     0.033 H 
ENDBRANCH   2  19
TORSDOF 4
