REMARK  3 active torsions:
REMARK  status: ('A' for Active; 'I' for Inactive)
REMARK    1  A    between atoms: C1_1  and  C2_2 
REMARK    2  A    between atoms: C2_2  and  C3_3 
REMARK    3  A    between atoms: C6_7  and  N3_9 
ROOT
ATOM      1  C3  <0> d           0.731  -0.503   1.223  0.00  0.00     0.054 A 
ATOM      2  C4  <0> d           0.122  -1.401   2.085  0.00  0.00    -0.041 A 
ATOM      3  C5  <0> d           0.827  -1.836   3.196  0.00  0.00     0.023 A 
ATOM      4  N1  <0> d           2.053  -1.383   3.400  0.00  0.00    -0.075 NA
ATOM      5  C6  <0> d           2.607  -0.525   2.556  0.00  0.00     0.720 A 
ATOM      6  N2  <0> d           1.962  -0.094   1.482  0.00  0.00    -0.068 NA
ATOM      7  H6  <0> d          -0.881  -1.754   1.896  0.00  0.00     0.088 H 
ATOM      8  H7  <0> d           0.381  -2.535   3.888  0.00  0.00     0.115 H 
ENDROOT
BRANCH   1   9
ATOM      9  C2  <0> d           0.002  -0.004   0.002  0.00  0.00    -0.027 C 
ATOM     10  H4  <0> d          -1.020  -0.381   0.010  0.00  0.00     0.041 H 
ATOM     11  H5  <0> d           0.512  -0.356  -0.895  0.00  0.00     0.041 H 
BRANCH   9  12
ATOM     12  C1  <0> d          -0.019   1.526   0.010  0.00  0.00    -0.071 C 
ATOM     13  H1  <0> d           1.004   1.903   0.003  0.00  0.00     0.028 H 
ATOM     14  H2  <0> d          -0.546   1.887  -0.873  0.00  0.00     0.028 H 
ATOM     15  H3  <0> d          -0.529   1.877   0.907  0.00  0.00     0.028 H 
ENDBRANCH   9  12
ENDBRANCH   1   9
BRANCH   5  16
ATOM     16  N3  <0> d           3.892  -0.072   2.799  0.00  0.00    -0.231 N 
ATOM     17  H8  <0> d           4.376  -0.383   3.580  0.00  0.00     0.174 HD
ATOM     18  H9  <0> d           4.309   0.556   2.188  0.00  0.00     0.174 HD
ENDBRANCH   5  16
TORSDOF 3
