REMARK  4 active torsions:
REMARK  status: ('A' for Active; 'I' for Inactive)
REMARK    1  A    between atoms: C1_1  and  C2_2 
REMARK    2  A    between atoms: C2_2  and  S1_3 
REMARK    3  A    between atoms: S1_3  and  C3_4 
REMARK    4  A    between atoms: C4_5  and  O1_10 
ROOT
ATOM      1  C3  <0> d           1.195   2.076   0.002  0.00  0.00     0.126 A 
ATOM      2  C4  <0> d          -0.017   1.382   0.010  0.00  0.00     0.101 A 
ATOM      3  C5  <0> d           0.002  -0.004   0.002  0.00  0.00    -0.047 A 
ATOM      4  C6  <0> d           1.232  -0.649  -0.013  0.00  0.00    -0.063 A 
ATOM      5  C7  <0> d           2.390   0.101  -0.020  0.00  0.00     0.004 A 
ATOM      6  N1  <0> d           2.345   1.420  -0.013  0.00  0.00    -0.251 NA
ATOM      7  H6  <0> d          -0.918  -0.569   0.007  0.00  0.00     0.087 H 
ATOM      8  H7  <0> d           1.282  -1.728  -0.020  0.00  0.00     0.085 H 
ATOM      9  H8  <0> d           3.348  -0.399  -0.032  0.00  0.00     0.114 H 
ENDROOT
BRANCH   1  10
ATOM     10  S1  <0> d           1.194   3.838   0.011  0.00  0.00    -0.108 SA
BRANCH  10  11
ATOM     11  C2  <0> d           2.954   4.278  -0.004  0.00  0.00    -0.021 C 
ATOM     12  H4  <0> d           3.439   3.863   0.880  0.00  0.00     0.049 H 
ATOM     13  H5  <0> d           3.423   3.872  -0.900  0.00  0.00     0.049 H 
BRANCH  11  14
ATOM     14  C1  <0> d           3.099   5.801   0.003  0.00  0.00    -0.068 C 
ATOM     15  H1  <0> d           2.613   6.216  -0.881  0.00  0.00     0.028 H 
ATOM     16  H2  <0> d           2.630   6.207   0.899  0.00  0.00     0.028 H 
ATOM     17  H3  <0> d           4.156   6.066  -0.006  0.00  0.00     0.028 H 
ENDBRANCH  11  14
ENDBRANCH  10  11
ENDBRANCH   1  10
BRANCH   2  18
ATOM     18  O1  <0> d          -1.198   2.056   0.019  0.00  0.00    -0.358 OA
ATOM     19  H9  <0> d          -1.535   2.247   0.905  0.00  0.00     0.217 HD
ENDBRANCH   2  18
TORSDOF 4
