REMARK  4 active torsions:
REMARK  status: ('A' for Active; 'I' for Inactive)
REMARK    1  A    between atoms: C1_1  and  O1_2 
REMARK    2  A    between atoms: O1_2  and  C2_3 
REMARK    3  A    between atoms: C2_3  and  C3_5 
REMARK    4  A    between atoms: C6_8  and  N2_11 
ROOT
ATOM      1  C3  <0> d          -1.247  -2.108   0.003  0.00  0.00     0.131 A 
ATOM      2  C4  <0> d          -2.486  -2.751   0.005  0.00  0.00    -0.047 A 
ATOM      3  C5  <0> d          -2.528  -4.132  -0.002  0.00  0.00    -0.054 A 
ATOM      4  C6  <0> d          -1.323  -4.833  -0.011  0.00  0.00     0.043 A 
ATOM      5  C7  <0> d          -0.122  -4.122  -0.013  0.00  0.00     0.028 A 
ATOM      6  N1  <0> d          -0.119  -2.809  -0.012  0.00  0.00    -0.253 NA
ATOM      7  H4  <0> d          -3.401  -2.176   0.013  0.00  0.00     0.087 H 
ATOM      8  H5  <0> d          -3.472  -4.657   0.001  0.00  0.00     0.087 H 
ATOM      9  H6  <0> d           0.815  -4.659  -0.021  0.00  0.00     0.118 H 
ENDROOT
BRANCH   1  10
ATOM     10  C2  <0> d          -1.190  -0.632   0.010  0.00  0.00     0.311 C 
ATOM     11  O2  <0> d          -2.217   0.016   0.023  0.00  0.00    -0.258 OA
BRANCH  10  12
ATOM     12  O1  <0> d           0.002  -0.004   0.002  0.00  0.00    -0.321 OA
BRANCH  12  13
ATOM     13  C1  <0> d          -0.017   1.425   0.010  0.00  0.00     0.013 C 
ATOM     14  H1  <0> d           1.005   1.802   0.002  0.00  0.00     0.067 H 
ATOM     15  H2  <0> d          -0.544   1.786  -0.873  0.00  0.00     0.067 H 
ATOM     16  H3  <0> d          -0.527   1.776   0.907  0.00  0.00     0.067 H 
ENDBRANCH  12  13
ENDBRANCH  10  12
ENDBRANCH   1  10
BRANCH   4  17
ATOM     17  N2  <0> d          -1.317  -6.223  -0.018  0.00  0.00    -0.398 N 
ATOM     18  H7  <0> d          -2.155  -6.712  -0.016  0.00  0.00     0.156 HD
ATOM     19  H8  <0> d          -0.475  -6.705  -0.025  0.00  0.00     0.156 HD
ENDBRANCH   4  17
TORSDOF 4
