REMARK  4 active torsions:
REMARK  status: ('A' for Active; 'I' for Inactive)
REMARK    1  A    between atoms: C1_1  and  C2_2 
REMARK    2  A    between atoms: C2_2  and  C3_3 
REMARK    3  A    between atoms: C3_3  and  O1_11 
REMARK    4  A    between atoms: C7_7  and  C9_10 
ROOT
ATOM      1  C3  <0> d           2.022   2.313  -0.256  0.00  0.00     0.058 C 
ATOM      2  C4  <0> d           0.515   2.138  -0.058  0.00  0.00    -0.036 C 
ATOM      3  C5  <0> d           0.197   0.656   0.155  0.00  0.00    -0.062 C 
ATOM      4  C6  <0> d           0.647  -0.143  -1.069  0.00  0.00    -0.062 C 
ATOM      5  C7  <0> d           2.154   0.032  -1.268  0.00  0.00    -0.055 C 
ATOM      6  H1  <0> d           2.474  -0.537  -2.140  0.00  0.00     0.039 H 
ATOM      7  C8  <0> d           2.471   1.514  -1.481  0.00  0.00    -0.033 C 
ATOM      8  H7  <0> d          -0.012   2.499  -0.941  0.00  0.00     0.037 H 
ATOM      9  H8  <0> d           0.195   2.707   0.815  0.00  0.00     0.037 H 
ATOM     10  H9  <0> d           0.725   0.295   1.039  0.00  0.00     0.033 H 
ATOM     11  H10 <0> d          -0.876   0.532   0.297  0.00  0.00     0.033 H 
ATOM     12  H11 <0> d           0.420  -1.198  -0.917  0.00  0.00     0.033 H 
ATOM     13  H12 <0> d           0.119   0.218  -1.952  0.00  0.00     0.033 H 
ATOM     14  H13 <0> d           3.545   1.638  -1.622  0.00  0.00     0.037 H 
ATOM     15  H14 <0> d           1.944   1.875  -2.364  0.00  0.00     0.037 H 
ENDROOT
BRANCH   1  16
ATOM     16  C2  <0> d           2.339   3.794  -0.470  0.00  0.00    -0.040 C 
ATOM     17  H5  <0> d           3.413   3.919  -0.611  0.00  0.00     0.036 H 
ATOM     18  H6  <0> d           1.812   4.155  -1.353  0.00  0.00     0.036 H 
BRANCH  16  19
ATOM     19  C1  <0> d           1.890   4.594   0.755  0.00  0.00    -0.074 C 
ATOM     20  H2  <0> d           2.116   5.649   0.603  0.00  0.00     0.027 H 
ATOM     21  H3  <0> d           0.816   4.469   0.896  0.00  0.00     0.027 H 
ATOM     22  H4  <0> d           2.417   4.233   1.638  0.00  0.00     0.027 H 
ENDBRANCH  16  19
ENDBRANCH   1  16
BRANCH   1  23
ATOM     23  O1  <0> d           2.713   1.840   0.901  0.00  0.00    -0.390 OA
ATOM     24  H18 <0> d           2.477   2.302   1.717  0.00  0.00     0.210 HD
ENDBRANCH   1  23
BRANCH   5  25
ATOM     25  C9  <0> d           2.894  -0.475  -0.028  0.00  0.00    -0.073 C 
ATOM     26  H15 <0> d           2.832  -1.562   0.013  0.00  0.00     0.028 H 
ATOM     27  H16 <0> d           3.939  -0.172  -0.080  0.00  0.00     0.028 H 
ATOM     28  H17 <0> d           2.437  -0.051   0.866  0.00  0.00     0.028 H 
ENDBRANCH   5  25
TORSDOF 4
