REMARK  5 active torsions:
REMARK  status: ('A' for Active; 'I' for Inactive)
REMARK    1  A    between atoms: C1_1  and  C2_2 
REMARK    2  A    between atoms: C2_2  and  C3_3 
REMARK    3  A    between atoms: C3_3  and  C4_4 
REMARK    4  A    between atoms: C4_4  and  C5_5 
REMARK    5  A    between atoms: C6_6  and  C7_7 
ROOT
ATOM      1  C5  <0> d          -0.749   1.587  -3.683  0.00  0.00    -0.104 C 
ATOM      2  C6  <0> d          -1.316   1.976  -4.634  0.00  0.00    -0.074 C 
ENDROOT
BRANCH   1   3
ATOM      3  C4  <0> d          -0.037   1.099  -2.490  0.00  0.00    -0.009 C 
ATOM      4  H9  <0> d           0.986   1.476  -2.498  0.00  0.00     0.051 H 
ATOM      5  H10 <0> d          -0.022   0.009  -2.496  0.00  0.00     0.051 H 
BRANCH   3   6
ATOM      6  C3  <0> d          -0.753   1.593  -1.232  0.00  0.00    -0.056 C 
ATOM      7  H7  <0> d          -1.775   1.215  -1.224  0.00  0.00     0.034 H 
ATOM      8  H8  <0> d          -0.767   2.683  -1.226  0.00  0.00     0.034 H 
BRANCH   6   9
ATOM      9  C2  <0> d          -0.013   1.086   0.008  0.00  0.00    -0.068 C 
ATOM     10  H5  <0> d           0.002  -0.004   0.002  0.00  0.00     0.032 H 
ATOM     11  H6  <0> d           1.010   1.463   0.000  0.00  0.00     0.032 H 
BRANCH   9  12
ATOM     12  C1  <0> d          -0.729   1.579   1.267  0.00  0.00    -0.076 C 
ATOM     13  H2  <0> d          -0.202   1.218   2.150  0.00  0.00     0.027 H 
ATOM     14  H3  <0> d          -0.744   2.669   1.273  0.00  0.00     0.027 H 
ATOM     15  H4  <0> d          -1.751   1.202   1.275  0.00  0.00     0.027 H 
ENDBRANCH   9  12
ENDBRANCH   6   9
ENDBRANCH   3   6
ENDBRANCH   1   3
BRANCH   2  16
ATOM     16  C7  <0> d          -2.028   2.463  -5.827  0.00  0.00     0.096 C 
ATOM     17  H1  <0> d          -3.057   2.102  -5.816  0.00  0.00     0.103 H 
ATOM     18  O1  <0> d          -1.364   2.006  -7.010  0.00  0.00    -0.374 OA
ATOM     19  C10 <0> d          -0.960   3.128  -7.811  0.00  0.00     0.021 C 
ATOM     20  C9  <0> d          -0.837   4.310  -6.817  0.00  0.00    -0.042 C 
ATOM     21  H15 <0> d           0.002   2.928  -8.283  0.00  0.00     0.074 H 
ATOM     22  H16 <0> d          -1.714   3.344  -8.567  0.00  0.00     0.074 H 
ATOM     23  C8  <0> d          -2.014   4.007  -5.851  0.00  0.00    -0.029 C 
ATOM     24  H13 <0> d           0.119   4.285  -6.293  0.00  0.00     0.036 H 
ATOM     25  H14 <0> d          -0.979   5.265  -7.324  0.00  0.00     0.036 H 
ATOM     26  H11 <0> d          -2.951   4.398  -6.246  0.00  0.00     0.038 H 
ATOM     27  H12 <0> d          -1.813   4.409  -4.857  0.00  0.00     0.038 H 
ENDBRANCH   2  16
TORSDOF 5
