REMARK  1 active torsions:
REMARK  status: ('A' for Active; 'I' for Inactive)
REMARK    1  A    between atoms: C2_2  and  C5_7 
ROOT
ATOM      1  C1  <0> d           1.257   3.499   0.009  0.00  0.00     0.021 A 
ATOM      2  C2  <0> d           1.253   2.099   0.001  0.00  0.00     0.075 A 
ATOM      3  C3  <0> d           2.486   1.436  -0.008  0.00  0.00     0.021 A 
ATOM      4  N1  <0> d           3.596   2.151  -0.021  0.00  0.00    -0.253 NA
ATOM      5  C4  <0> d           3.554   3.470  -0.013  0.00  0.00     0.086 A 
ATOM      6  N2  <0> d           2.415   4.134   0.001  0.00  0.00    -0.253 NA
ATOM      7  H1  <0> d           0.328   4.050   0.021  0.00  0.00     0.116 H 
ATOM      8  H2  <0> d           2.528   0.356  -0.009  0.00  0.00     0.116 H 
ATOM      9  H3  <0> d           4.482   4.022  -0.020  0.00  0.00     0.146 H 
ENDROOT
BRANCH   2  10
ATOM     10  C5  <0> d          -0.016   1.343   0.009  0.00  0.00     0.212 C 
ATOM     11  O1  <0> d          -1.076   1.936   0.018  0.00  0.00    -0.644 OA
ATOM     12  O2  <0> d           0.002  -0.004   0.002  0.00  0.00    -0.644 OA
ENDBRANCH   2  10
TORSDOF 1
