REMARK  5 active torsions:
REMARK  status: ('A' for Active; 'I' for Inactive)
REMARK    1  A    between atoms: C1_1  and  C2_2 
REMARK    2  A    between atoms: C2_2  and  C3_3 
REMARK    3  A    between atoms: C3_3  and  C4_4 
REMARK    4  A    between atoms: C3_3  and  C5_5 
REMARK    5  A    between atoms: C3_3  and  O1_7 
ROOT
ATOM      1  C3  <0> d           0.002  -0.004   0.002  0.00  0.00     0.071 C 
ENDROOT
BRANCH   1   2
ATOM      2  C2  <0> d           0.718  -0.497  -1.257  0.00  0.00    -0.037 C 
ATOM      3  H4  <0> d           0.733  -1.587  -1.263  0.00  0.00     0.037 H 
ATOM      4  H5  <0> d           0.191  -0.136  -2.140  0.00  0.00     0.037 H 
BRANCH   2   5
ATOM      5  C1  <0> d           2.154   0.032  -1.268  0.00  0.00    -0.074 C 
ATOM      6  H1  <0> d           2.139   1.122  -1.262  0.00  0.00     0.027 H 
ATOM      7  H2  <0> d           2.681  -0.329  -0.385  0.00  0.00     0.027 H 
ATOM      8  H3  <0> d           2.664  -0.319  -2.164  0.00  0.00     0.027 H 
ENDBRANCH   2   5
ENDBRANCH   1   2
BRANCH   1   9
ATOM      9  C4  <0> d          -0.019   1.526   0.010  0.00  0.00    -0.045 C 
ATOM     10  H6  <0> d           1.004   1.903   0.003  0.00  0.00     0.032 H 
ATOM     11  H7  <0> d          -0.546   1.887  -0.873  0.00  0.00     0.032 H 
ATOM     12  H8  <0> d          -0.529   1.877   0.907  0.00  0.00     0.032 H 
ENDBRANCH   1   9
BRANCH   1  13
ATOM     13  C5  <0> d          -1.412  -0.526   0.013  0.00  0.00    -0.080 C 
ATOM     14  C6  <0> d          -1.821  -1.290   0.995  0.00  0.00    -0.122 C 
ATOM     15  H10 <0> d          -1.144  -1.546   1.797  0.00  0.00     0.066 H 
ATOM     16  H11 <0> d          -2.834  -1.664   1.003  0.00  0.00     0.066 H 
ATOM     17  H9  <0> d          -2.088  -0.270  -0.789  0.00  0.00     0.080 H 
ENDBRANCH   1  13
BRANCH   1  18
ATOM     18  O1  <0> d           0.693  -0.477   1.160  0.00  0.00    -0.386 OA
ATOM     19  H12 <0> d           0.745  -1.441   1.220  0.00  0.00     0.211 HD
ENDBRANCH   1  18
TORSDOF 5
