REMARK  4 active torsions:
REMARK  status: ('A' for Active; 'I' for Inactive)
REMARK    1  A    between atoms: C2_2  and  C6_11 
REMARK    2  A    between atoms: C4_6  and  C5_9 
REMARK    3  A    between atoms: C5_9  and  O3_10 
REMARK    4  A    between atoms: C6_11  and  O4_12 
ROOT
ATOM      1  C1  <0> d           1.423   1.617  -0.003  0.00  0.00     0.046 C 
ATOM      2  C2  <0> d          -0.013   1.086   0.008  0.00  0.00     0.079 C 
ATOM      3  H1  <0> d          -0.036  -0.012  -0.053  0.00  0.00     0.089 H 
ATOM      4  O1  <0> d          -0.698   1.561  -1.155  0.00  0.00    -0.379 OA
ATOM      5  C3  <0> d          -0.726   2.988  -1.259  0.00  0.00     0.046 C 
ATOM      6  C4  <0> d           0.710   3.519  -1.270  0.00  0.00     0.079 C 
ATOM      7  H2  <0> d           1.274   3.137  -2.134  0.00  0.00     0.089 H 
ATOM      8  O2  <0> d           1.395   3.044  -0.108  0.00  0.00    -0.379 OA
ATOM      9  H3  <0> d           1.967   1.197  -0.862  0.00  0.00     0.078 H 
ATOM     10  H4  <0> d           1.932   1.328   0.929  0.00  0.00     0.078 H 
ATOM     11  H5  <0> d          -1.234   3.277  -2.191  0.00  0.00     0.078 H 
ATOM     12  H6  <0> d          -1.269   3.408  -0.400  0.00  0.00     0.078 H 
ENDROOT
BRANCH   2  13
ATOM     13  C6  <0> d          -0.732   1.581   1.265  0.00  0.00     0.043 C 
ATOM     14  H10 <0> d          -0.153   1.293   2.155  0.00  0.00     0.078 H 
ATOM     15  H11 <0> d          -0.825   2.676   1.226  0.00  0.00     0.078 H 
BRANCH  13  16
ATOM     16  O4  <0> d          -2.033   0.993   1.332  0.00  0.00    -0.398 OA
ATOM     17  H12 <0> d          -2.701   1.232   2.172  0.00  0.00     0.209 HD
ENDBRANCH  13  16
ENDBRANCH   2  13
BRANCH   6  18
ATOM     18  C5  <0> d           0.691   5.049  -1.263  0.00  0.00     0.043 C 
ATOM     19  H7  <0> d           0.088   5.412  -2.108  0.00  0.00     0.078 H 
ATOM     20  H8  <0> d           0.252   5.405  -0.319  0.00  0.00     0.078 H 
BRANCH  18  21
ATOM     21  O3  <0> d           2.026   5.543  -1.383  0.00  0.00    -0.398 OA
ATOM     22  H9  <0> d           2.213   6.627  -1.396  0.00  0.00     0.209 HD
ENDBRANCH  18  21
ENDBRANCH   6  18
TORSDOF 4
