REMARK  4 active torsions:
REMARK  status: ('A' for Active; 'I' for Inactive)
REMARK    1  A    between atoms: C1_1  and  C2_2 
REMARK    2  A    between atoms: C2_2  and  O1_3 
REMARK    3  A    between atoms: O1_3  and  C3_4 
REMARK    4  A    between atoms: C3_4  and  C4_6 
ROOT
ATOM      1  C4  <0> d           0.145   0.983   4.903  0.00  0.00     0.088 C 
ATOM      2  H1  <0> d           1.089   1.312   4.917  0.00  0.00     0.067 H 
ATOM      3  C5  <0> d          -0.622   1.512   6.133  0.00  0.00    -0.046 C 
ATOM      4  C6  <0> d          -0.539   0.343   7.149  0.00  0.00    -0.058 C 
ATOM      5  C7  <0> d          -0.663  -0.900   6.233  0.00  0.00    -0.009 C 
ATOM      6  C8  <0> d           0.115  -0.529   4.983  0.00  0.00     0.140 C 
ATOM      7  O3  <0> d           0.617  -1.297   4.198  0.00  0.00    -0.297 OA
ATOM      8  H7  <0> d          -0.137   2.402   6.534  0.00  0.00     0.034 H 
ATOM      9  H8  <0> d          -1.659   1.725   5.875  0.00  0.00     0.034 H 
ATOM     10  H9  <0> d           0.419   0.348   7.668  0.00  0.00     0.033 H 
ATOM     11  H10 <0> d          -1.364   0.389   7.860  0.00  0.00     0.033 H 
ATOM     12  H11 <0> d          -0.279  -1.697   6.699  0.00  0.00     0.044 H 
ATOM     13  H12 <0> d          -1.708  -1.091   5.990  0.00  0.00     0.044 H 
ENDROOT
BRANCH   1  14
ATOM     14  C3  <0> d          -0.530   1.446   3.638  0.00  0.00     0.270 C 
ATOM     15  O2  <0> d          -1.525   2.129   3.699  0.00  0.00    -0.264 OA
BRANCH  14  16
ATOM     16  O1  <0> d          -0.027   1.098   2.443  0.00  0.00    -0.321 OA
BRANCH  16  17
ATOM     17  C2  <0> d          -0.729   1.579   1.267  0.00  0.00     0.025 C 
ATOM     18  H5  <0> d          -0.744   2.669   1.273  0.00  0.00     0.074 H 
ATOM     19  H6  <0> d          -1.751   1.202   1.275  0.00  0.00     0.074 H 
BRANCH  17  20
ATOM     20  C1  <0> d          -0.013   1.086   0.008  0.00  0.00    -0.056 C 
ATOM     21  H2  <0> d           0.002  -0.004   0.002  0.00  0.00     0.030 H 
ATOM     22  H3  <0> d           1.010   1.463   0.000  0.00  0.00     0.030 H 
ATOM     23  H4  <0> d          -0.540   1.447  -0.875  0.00  0.00     0.030 H 
ENDBRANCH  17  20
ENDBRANCH  16  17
ENDBRANCH  14  16
ENDBRANCH   1  14
TORSDOF 4
