REMARK  3 active torsions:
REMARK  status: ('A' for Active; 'I' for Inactive)
REMARK    1  A    between atoms: C1_1  and  C2_2 
REMARK    2  A    between atoms: C2_2  and  C3_3 
REMARK    3  A    between atoms: C3_3  and  C4_4 
ROOT
ATOM      1  C4  <0> d          -1.958   2.409  -0.547  0.00  0.00     0.048 C 
ATOM      2  H1  <0> d          -2.876   1.821  -0.559  0.00  0.00     0.084 H 
ATOM      3  C5  <0> d          -0.806   1.620  -1.205  0.00  0.00    -0.032 C 
ATOM      4  C6  <0> d          -0.013   1.086   0.008  0.00  0.00     0.018 C 
ATOM      5  C7  <0> d          -0.768   1.597   1.218  0.00  0.00     0.259 C 
ATOM      6  O1  <0> d          -0.705   1.145   2.337  0.00  0.00    -0.265 OA
ATOM      7  O2  <0> d          -1.523   2.642   0.826  0.00  0.00    -0.316 OA
ATOM      8  H9  <0> d          -0.185   2.279  -1.812  0.00  0.00     0.037 H 
ATOM      9  H10 <0> d          -1.195   0.797  -1.804  0.00  0.00     0.037 H 
ATOM     10  H11 <0> d           0.002  -0.004   0.002  0.00  0.00     0.048 H 
ATOM     11  H12 <0> d           1.004   1.479   0.000  0.00  0.00     0.048 H 
ENDROOT
BRANCH   1  12
ATOM     12  C3  <0> d          -2.172   3.740  -1.272  0.00  0.00    -0.041 C 
ATOM     13  H7  <0> d          -1.292   4.369  -1.143  0.00  0.00     0.036 H 
ATOM     14  H8  <0> d          -2.334   3.554  -2.333  0.00  0.00     0.036 H 
BRANCH  12  15
ATOM     15  C2  <0> d          -3.395   4.449  -0.686  0.00  0.00    -0.066 C 
ATOM     16  H5  <0> d          -4.276   3.819  -0.814  0.00  0.00     0.032 H 
ATOM     17  H6  <0> d          -3.233   4.635   0.376  0.00  0.00     0.032 H 
BRANCH  15  18
ATOM     18  C1  <0> d          -3.609   5.779  -1.410  0.00  0.00    -0.076 C 
ATOM     19  H2  <0> d          -3.771   5.593  -2.472  0.00  0.00     0.027 H 
ATOM     20  H3  <0> d          -4.481   6.284  -0.993  0.00  0.00     0.027 H 
ATOM     21  H4  <0> d          -2.729   6.409  -1.282  0.00  0.00     0.027 H 
ENDBRANCH  15  18
ENDBRANCH  12  15
ENDBRANCH   1  12
TORSDOF 3
