REMARK  2 active torsions:
REMARK  status: ('A' for Active; 'I' for Inactive)
REMARK    1  A    between atoms: C2_2  and  C5_10 
REMARK    2  A    between atoms: C4_7  and  N3_9 
ROOT
ATOM      1  C1  <0> d          -0.016   1.319   0.009  0.00  0.00     0.043 A 
ATOM      2  C2  <0> d           1.189   2.028   0.002  0.00  0.00     0.127 A 
ATOM      3  C3  <0> d           2.407   1.292  -0.014  0.00  0.00     0.278 A 
ATOM      4  O1  <0> d           3.482   1.866  -0.021  0.00  0.00    -0.266 OA
ATOM      5  N1  <0> d           2.344  -0.056  -0.021  0.00  0.00    -0.154 N 
ATOM      6  H1  <0> d           3.160  -0.580  -0.031  0.00  0.00     0.187 HD
ATOM      7  C4  <0> d           1.137  -0.682  -0.013  0.00  0.00     0.700 A 
ATOM      8  N2  <0> d           0.002  -0.004   0.002  0.00  0.00    -0.076 NA
ATOM      9  H2  <0> d          -0.957   1.849   0.026  0.00  0.00     0.117 H 
ENDROOT
BRANCH   2  10
ATOM     10  C5  <0> d           1.197   3.491   0.009  0.00  0.00     0.216 C 
ATOM     11  O2  <0> d           0.140   4.110   0.022  0.00  0.00    -0.644 OA
ATOM     12  O3  <0> d           2.261   4.098   0.002  0.00  0.00    -0.644 OA
ENDBRANCH   2  10
BRANCH   7  13
ATOM     13  N3  <0> d           1.096  -2.045  -0.020  0.00  0.00    -0.233 N 
ATOM     14  H3  <0> d           1.921  -2.555  -0.031  0.00  0.00     0.174 HD
ATOM     15  H4  <0> d           0.242  -2.505  -0.014  0.00  0.00     0.174 HD
ENDBRANCH   7  13
TORSDOF 2
