REMARK  4 active torsions:
REMARK  status: ('A' for Active; 'I' for Inactive)
REMARK    1  A    between atoms: C3_3  and  C7_9 
REMARK    2  A    between atoms: C4_4  and  C6_7 
REMARK    3  A    between atoms: C6_7  and  O1_8 
REMARK    4  A    between atoms: C7_9  and  O2_10 
ROOT
ATOM      1  C1  <0> d          -0.013   1.076   0.008  0.00  0.00    -0.065 A 
ATOM      2  C2  <0> d          -1.218   1.762   0.017  0.00  0.00    -0.071 A 
ATOM      3  C3  <0> d          -1.188   3.147   0.029  0.00  0.00    -0.008 A 
ATOM      4  C4  <0> d           0.033   3.795   0.021  0.00  0.00     0.066 A 
ATOM      5  N1  <0> d           1.159   3.110   0.007  0.00  0.00    -0.263 NA
ATOM      6  C5  <0> d           1.169   1.792   0.001  0.00  0.00     0.003 A 
ATOM      7  H1  <0> d           0.002  -0.004   0.002  0.00  0.00     0.085 H 
ATOM      8  H2  <0> d          -2.157   1.229   0.019  0.00  0.00     0.084 H 
ATOM      9  H3  <0> d           2.112   1.265  -0.011  0.00  0.00     0.114 H 
ENDROOT
BRANCH   3  10
ATOM     10  C7  <0> d          -2.471   3.938   0.045  0.00  0.00     0.042 C 
ATOM     11  H7  <0> d          -2.503   4.568   0.946  0.00  0.00     0.081 H 
ATOM     12  H8  <0> d          -2.520   4.576  -0.850  0.00  0.00     0.081 H 
BRANCH  10  13
ATOM     13  O2  <0> d          -3.583   3.041   0.051  0.00  0.00    -0.396 OA
ATOM     14  H9  <0> d          -4.609   3.437   0.063  0.00  0.00     0.209 HD
ENDBRANCH  10  13
ENDBRANCH   3  10
BRANCH   4  15
ATOM     15  C6  <0> d           0.077   5.302   0.028  0.00  0.00     0.057 C 
ATOM     16  H4  <0> d          -0.805   5.692   0.557  0.00  0.00     0.083 H 
ATOM     17  H5  <0> d           0.990   5.639   0.540  0.00  0.00     0.083 H 
BRANCH  15  18
ATOM     18  O1  <0> d           0.078   5.785  -1.317  0.00  0.00    -0.395 OA
ATOM     19  H6  <0> d           0.108   6.867  -1.513  0.00  0.00     0.209 HD
ENDBRANCH  15  18
ENDBRANCH   4  15
TORSDOF 4
