REMARK  4 active torsions:
REMARK  status: ('A' for Active; 'I' for Inactive)
REMARK    1  A    between atoms: C2_2  and  C5_10 
REMARK    2  A    between atoms: N3_5  and  C3_6 
REMARK    3  A    between atoms: C3_6  and  C4_7 
REMARK    4  A    between atoms: C5_10  and  O3_11 
ROOT
ATOM      1  C1  <0> d          -3.433   0.914   0.925  0.00  0.00     0.028 A 
ATOM      2  C2  <0> d          -4.222  -0.119   0.547  0.00  0.00     0.099 A 
ATOM      3  N1  <0> d          -3.666  -0.640  -0.553  0.00  0.00    -0.133 NA
ATOM      4  N2  <0> d          -2.605   0.030  -0.840  0.00  0.00    -0.066 NA
ATOM      5  N3  <0> d          -2.430   0.973   0.019  0.00  0.00    -0.251 N 
ATOM      6  H1  <0> d          -3.577   1.561   1.777  0.00  0.00     0.117 H 
ENDROOT
BRANCH   5   7
ATOM      7  C3  <0> d          -1.329   1.940   0.019  0.00  0.00     0.097 C 
ATOM      8  H2  <0> d          -1.401   2.576  -0.875  0.00  0.00     0.084 H 
ATOM      9  H3  <0> d          -1.392   2.566   0.921  0.00  0.00     0.084 H 
BRANCH   7  10
ATOM     10  C4  <0> d          -0.014   1.204   0.009  0.00  0.00     0.193 C 
ATOM     11  O1  <0> d           0.002  -0.004   0.002  0.00  0.00    -0.647 OA
ATOM     12  O2  <0> d           1.139   1.891   0.001  0.00  0.00    -0.647 OA
ENDBRANCH   7  10
ENDBRANCH   5   7
BRANCH   2  13
ATOM     13  C5  <0> d          -5.477  -0.594   1.233  0.00  0.00     0.059 C 
ATOM     14  H4  <0> d          -6.324  -0.528   0.534  0.00  0.00     0.083 H 
ATOM     15  H5  <0> d          -5.348  -1.637   1.554  0.00  0.00     0.083 H 
BRANCH  13  16
ATOM     16  O3  <0> d          -5.736   0.228   2.373  0.00  0.00    -0.395 OA
ATOM     17  H6  <0> d          -6.616   0.032   3.003  0.00  0.00     0.209 HD
ENDBRANCH  13  16
ENDBRANCH   2  13
TORSDOF 4
