REMARK  2 active torsions:
REMARK  status: ('A' for Active; 'I' for Inactive)
REMARK    1  A    between atoms: C1_1  and  N1_2 
REMARK    2  A    between atoms: N1_2  and  C2_3 
ROOT
ATOM      1  C2  <0> d          -1.201  -0.721   0.010  0.00  0.00     0.046 A 
ATOM      2  C3  <0> d          -1.191  -2.108   0.008  0.00  0.00    -0.043 A 
ATOM      3  C4  <0> d          -2.420  -2.773   0.016  0.00  0.00     0.013 A 
ATOM      4  C5  <0> d          -2.819  -4.181   0.016  0.00  0.00    -0.054 A 
ATOM      5  C6  <0> d          -4.161  -4.206   0.025  0.00  0.00    -0.020 A 
ATOM      6  N2  <0> d          -4.652  -2.928   0.031  0.00  0.00    -0.350 N 
ATOM      7  H1  <0> d          -5.593  -2.693   0.037  0.00  0.00     0.166 HD
ATOM      8  C7  <0> d          -3.612  -2.025   0.025  0.00  0.00     0.137 A 
ATOM      9  N3  <0> d          -3.564  -0.700   0.026  0.00  0.00    -0.240 NA
ATOM     10  C8  <0> d          -2.420  -0.049   0.025  0.00  0.00     0.030 A 
ATOM     11  H6  <0> d          -0.261  -2.658   0.000  0.00  0.00     0.088 H 
ATOM     12  H7  <0> d          -2.160  -5.037   0.011  0.00  0.00     0.087 H 
ATOM     13  H8  <0> d          -4.765  -5.102   0.028  0.00  0.00     0.111 H 
ATOM     14  H9  <0> d          -2.428   1.031   0.031  0.00  0.00     0.118 H 
ENDROOT
BRANCH   1  15
ATOM     15  N1  <0> d           0.002  -0.004   0.002  0.00  0.00    -0.393 N 
ATOM     16  H5  <0> d           0.849  -0.478  -0.009  0.00  0.00     0.159 HD
BRANCH  15  17
ATOM     17  C1  <0> d          -0.018   1.461   0.010  0.00  0.00    -0.021 C 
ATOM     18  H2  <0> d           1.005   1.838   0.002  0.00  0.00     0.056 H 
ATOM     19  H3  <0> d          -0.545   1.822  -0.873  0.00  0.00     0.056 H 
ATOM     20  H4  <0> d          -0.528   1.812   0.907  0.00  0.00     0.056 H 
ENDBRANCH  15  17
ENDBRANCH   1  15
TORSDOF 2
