REMARK  4 active torsions:
REMARK  status: ('A' for Active; 'I' for Inactive)
REMARK    1  A    between atoms: C1_1  and  C2_2 
REMARK    2  A    between atoms: C2_2  and  O2_4 
REMARK    3  A    between atoms: O2_4  and  C3_5 
REMARK    4  A    between atoms: C8_10  and  O3_11 
ROOT
ATOM      1  C3  <0> d          -0.021   1.380   0.008  0.00  0.00     0.112 A 
ATOM      2  C4  <0> d           1.176   2.078   0.027  0.00  0.00    -0.047 A 
ATOM      3  C5  <0> d           2.376   1.393   0.010  0.00  0.00    -0.080 A 
ATOM      4  C6  <0> d           2.386   0.011  -0.025  0.00  0.00    -0.080 A 
ATOM      5  C7  <0> d           1.196  -0.692  -0.044  0.00  0.00    -0.048 A 
ATOM      6  C8  <0> d          -0.011  -0.011  -0.028  0.00  0.00     0.099 A 
ATOM      7  H4  <0> d           1.171   3.158   0.054  0.00  0.00     0.087 H 
ATOM      8  H5  <0> d           3.308   1.938   0.024  0.00  0.00     0.083 H 
ATOM      9  H6  <0> d           3.326  -0.521  -0.038  0.00  0.00     0.083 H 
ATOM     10  H7  <0> d           1.207  -1.772  -0.072  0.00  0.00     0.087 H 
ENDROOT
BRANCH   1  11
ATOM     11  O2  <0> d          -1.203   2.053   0.019  0.00  0.00    -0.276 OA
BRANCH  11  12
ATOM     12  C2  <0> d          -1.827   2.168   1.201  0.00  0.00     0.260 C 
ATOM     13  O1  <0> d          -1.292   1.772   2.209  0.00  0.00    -0.265 OA
BRANCH  12  14
ATOM     14  C1  <0> d          -3.197   2.793   1.272  0.00  0.00     0.004 C 
ATOM     15  H1  <0> d          -3.956   2.019   1.153  0.00  0.00     0.041 H 
ATOM     16  H2  <0> d          -3.325   3.281   2.238  0.00  0.00     0.041 H 
ATOM     17  H3  <0> d          -3.302   3.530   0.476  0.00  0.00     0.041 H 
ENDBRANCH  12  14
ENDBRANCH  11  12
ENDBRANCH   1  11
BRANCH   6  18
ATOM     18  O3  <0> d          -1.183  -0.701  -0.047  0.00  0.00    -0.358 OA
ATOM     19  H8  <0> d          -1.521  -0.878  -0.935  0.00  0.00     0.217 HD
ENDBRANCH   6  18
TORSDOF 4
