REMARK  3 active torsions:
REMARK  status: ('A' for Active; 'I' for Inactive)
REMARK    1  A    between atoms: C1_1  and  N1_2 
REMARK    2  A    between atoms: C4_6  and  C5_7 
REMARK    3  A    between atoms: C5_7  and  C6_9 
ROOT
ATOM      1  N1  <0> d           0.002  -0.004   0.002  0.00  0.00    -0.342 N 
ATOM      2  C2  <0> d           0.009  -0.801  -1.090  0.00  0.00    -0.002 A 
ATOM      3  C3  <0> d           0.029  -2.086  -0.649  0.00  0.00     0.019 A 
ATOM      4  N2  <0> d           0.034  -2.074   0.679  0.00  0.00    -0.238 NA
ATOM      5  C4  <0> d           0.024  -0.823   1.099  0.00  0.00     0.176 A 
ATOM      6  H4  <0> d          -0.001  -0.477  -2.120  0.00  0.00     0.113 H 
ATOM      7  H5  <0> d           0.038  -2.968  -1.273  0.00  0.00     0.117 H 
ENDROOT
BRANCH   5   8
ATOM      8  C5  <0> d           0.031  -0.386   2.497  0.00  0.00     0.199 C 
ATOM      9  O1  <0> d           0.017   0.798   2.763  0.00  0.00    -0.289 OA
BRANCH   8  10
ATOM     10  C6  <0> d           0.055  -1.407   3.606  0.00  0.00     0.012 A 
ATOM     11  C8  <0> d           0.636  -0.973   4.953  0.00  0.00    -0.054 A 
ATOM     12  C7  <0> d          -0.873  -1.176   4.800  0.00  0.00    -0.054 A 
ATOM     13  H9  <0> d           1.188  -1.718   5.527  0.00  0.00     0.034 H 
ATOM     14  H10 <0> d           1.000   0.051   5.038  0.00  0.00     0.034 H 
ATOM     15  H7  <0> d          -1.501  -0.285   4.784  0.00  0.00     0.034 H 
ATOM     16  H8  <0> d          -1.313  -2.054   5.272  0.00  0.00     0.034 H 
ATOM     17  H6  <0> d           0.226  -2.437   3.292  0.00  0.00     0.052 H 
ENDBRANCH   8  10
ENDBRANCH   5   8
BRANCH   1  18
ATOM     18  C1  <0> d          -0.018   1.461   0.010  0.00  0.00    -0.013 C 
ATOM     19  H1  <0> d           1.005   1.838   0.002  0.00  0.00     0.057 H 
ATOM     20  H2  <0> d          -0.545   1.822  -0.873  0.00  0.00     0.057 H 
ATOM     21  H3  <0> d          -0.528   1.812   0.907  0.00  0.00     0.057 H 
ENDBRANCH   1  18
TORSDOF 3
