REMARK  0 active torsions:
REMARK  status: ('A' for Active; 'I' for Inactive)
ROOT
ATOM      1  C1  <0> d          -0.017   1.393   0.010  0.00  0.00    -0.050 A 
ATOM      2  C2  <0> d           1.185   2.074   0.002  0.00  0.00     0.003 A 
ATOM      3  N1  <0> d           2.331   1.421  -0.013  0.00  0.00    -0.270 NA
ATOM      4  C3  <0> d           2.397   0.108  -0.020  0.00  0.00     0.035 A 
ATOM      5  C4  <0> d           1.238  -0.667  -0.014  0.00  0.00     0.100 A 
ATOM      6  C5  <0> d           0.002  -0.004   0.002  0.00  0.00     0.048 A 
ATOM      7  C6  <0> d          -1.062  -1.022   0.006  0.00  0.00     0.186 A 
ATOM      8  O1  <0> d          -2.261  -0.844   0.018  0.00  0.00    -0.290 OA
ATOM      9  C7  <0> d          -0.319  -2.343  -0.008  0.00  0.00     0.085 A 
ATOM     10  O2  <0> d           1.070  -2.009  -0.019  0.00  0.00    -0.341 OA
ATOM     11  H1  <0> d          -0.954   1.931   0.026  0.00  0.00     0.087 H 
ATOM     12  H2  <0> d           1.186   3.154   0.007  0.00  0.00     0.114 H 
ATOM     13  H3  <0> d           3.362  -0.377  -0.032  0.00  0.00     0.119 H 
ATOM     14  H4  <0> d          -0.560  -2.920   0.885  0.00  0.00     0.087 H 
ATOM     15  H5  <0> d          -0.577  -2.909  -0.903  0.00  0.00     0.087 H 
ENDROOT
TORSDOF 0
