REMARK  3 active torsions:
REMARK  status: ('A' for Active; 'I' for Inactive)
REMARK    1  A    between atoms: C1_1  and  C2_2 
REMARK    2  A    between atoms: C3_3  and  N4_9 
REMARK    3  A    between atoms: C5_6  and  N3_8 
ROOT
ATOM      1  C2  <0> d          -1.184  -0.733   0.015  0.00  0.00     0.077 A 
ATOM      2  C3  <0> d           0.002  -0.004   0.002  0.00  0.00     0.069 A 
ATOM      3  C4  <0> d           1.207  -0.700  -0.013  0.00  0.00     0.048 A 
ATOM      4  N1  <0> d           1.186  -2.023  -0.020  0.00  0.00    -0.073 NA
ATOM      5  C5  <0> d           0.038  -2.683  -0.012  0.00  0.00     0.720 A 
ATOM      6  N2  <0> d          -1.127  -2.054   0.003  0.00  0.00    -0.066 NA
ATOM      7  H4  <0> d           2.147  -0.168  -0.019  0.00  0.00     0.119 H 
ENDROOT
BRANCH   1   8
ATOM      8  C1  <0> d          -2.514  -0.026   0.038  0.00  0.00    -0.033 C 
ATOM      9  H1  <0> d          -2.850   0.150  -0.984  0.00  0.00     0.035 H 
ATOM     10  H2  <0> d          -3.245  -0.644   0.559  0.00  0.00     0.035 H 
ATOM     11  H3  <0> d          -2.410   0.928   0.555  0.00  0.00     0.035 H 
ENDBRANCH   1   8
BRANCH   2  12
ATOM     12  N4  <0> d          -0.017   1.397   0.010  0.00  0.00    -0.396 N 
ATOM     13  H7  <0> d           0.816   1.893   0.004  0.00  0.00     0.156 HD
ATOM     14  H8  <0> d          -0.864   1.870   0.016  0.00  0.00     0.156 HD
ENDBRANCH   2  12
BRANCH   5  15
ATOM     15  N3  <0> d           0.057  -4.070  -0.019  0.00  0.00    -0.231 N 
ATOM     16  H5  <0> d           0.904  -4.544  -0.030  0.00  0.00     0.174 HD
ATOM     17  H6  <0> d          -0.776  -4.567  -0.013  0.00  0.00     0.174 HD
ENDBRANCH   5  15
TORSDOF 3
