REMARK  5 active torsions:
REMARK  status: ('A' for Active; 'I' for Inactive)
REMARK    1  A    between atoms: C1_1  and  C2_2 
REMARK    2  A    between atoms: C2_2  and  C3_3 
REMARK    3  A    between atoms: C3_3  and  C4_4 
REMARK    4  A    between atoms: C5_5  and  C6_6 
REMARK    5  A    between atoms: C6_6  and  C7_7 
ROOT
ATOM      1  C3  <0> d          -4.423  -0.778   0.019  0.00  0.00    -0.009 C 
ATOM      2  H6  <0> d          -4.360  -1.405  -0.883  0.00  0.00     0.051 H 
ATOM      3  H7  <0> d          -5.383  -0.241   0.026  0.00  0.00     0.051 H 
ENDROOT
BRANCH   1   4
ATOM      4  C2  <0> d          -4.324  -1.664   1.263  0.00  0.00    -0.059 C 
ATOM      5  H4  <0> d          -4.387  -1.037   2.165  0.00  0.00     0.033 H 
ATOM      6  H5  <0> d          -3.364  -2.201   1.255  0.00  0.00     0.033 H 
BRANCH   4   7
ATOM      7  C1  <0> d          -5.473  -2.674   1.263  0.00  0.00    -0.076 C 
ATOM      8  H1  <0> d          -5.402  -3.310   2.157  0.00  0.00     0.027 H 
ATOM      9  H2  <0> d          -5.411  -3.300   0.361  0.00  0.00     0.027 H 
ATOM     10  H3  <0> d          -6.433  -2.137   1.270  0.00  0.00     0.027 H 
ENDBRANCH   4   7
ENDBRANCH   1   4
BRANCH   1  11
ATOM     11  C4  <0> d          -3.317   0.193   0.019  0.00  0.00    -0.106 C 
ATOM     12  C5  <0> d          -2.435   0.968   0.019  0.00  0.00    -0.096 C 
BRANCH  12  13
ATOM     13  C6  <0> d          -1.329   1.940   0.019  0.00  0.00     0.071 C 
ATOM     14  H8  <0> d          -1.401   2.576  -0.875  0.00  0.00     0.068 H 
ATOM     15  H9  <0> d          -1.392   2.566   0.921  0.00  0.00     0.068 H 
BRANCH  13  16
ATOM     16  C7  <0> d          -0.014   1.204   0.009  0.00  0.00     0.184 C 
ATOM     17  O1  <0> d           0.002  -0.004   0.002  0.00  0.00    -0.647 OA
ATOM     18  O2  <0> d           1.139   1.891   0.001  0.00  0.00    -0.647 OA
ENDBRANCH  13  16
ENDBRANCH  12  13
ENDBRANCH   1  11
TORSDOF 5
