REMARK  4 active torsions:
REMARK  status: ('A' for Active; 'I' for Inactive)
REMARK    1  A    between atoms: C1_1  and  C2_2 
REMARK    2  A    between atoms: C2_2  and  O1_3 
REMARK    3  A    between atoms: O1_3  and  C3_4 
REMARK    4  A    between atoms: C6_10  and  N3_12 
ROOT
ATOM      1  C3  <0> d          -0.016   1.345   0.009  0.00  0.00     0.250 A 
ATOM      2  N1  <0> d          -1.210   1.993   0.019  0.00  0.00    -0.287 N 
ATOM      3  H1  <0> d          -2.148   1.419   0.016  0.00  0.00     0.172 HD
ATOM      4  C4  <0> d          -1.249   3.342   0.031  0.00  0.00     0.252 A 
ATOM      5  O2  <0> d          -2.318   3.932   0.044  0.00  0.00    -0.268 OA
ATOM      6  C5  <0> d          -0.044   4.052   0.023  0.00  0.00     0.026 A 
ATOM      7  C6  <0> d           1.147   3.342   0.009  0.00  0.00     0.130 A 
ATOM      8  N2  <0> d           1.121   2.003   0.002  0.00  0.00    -0.191 NA
ATOM      9  H7  <0> d          -0.041   5.132   0.028  0.00  0.00     0.098 H 
ENDROOT
BRANCH   1  10
ATOM     10  O1  <0> d           0.002  -0.004   0.002  0.00  0.00    -0.321 OA
BRANCH  10  11
ATOM     11  C2  <0> d           1.305  -0.646  -0.014  0.00  0.00     0.026 C 
ATOM     12  H5  <0> d           1.871  -0.347   0.880  0.00  0.00     0.074 H 
ATOM     13  H6  <0> d           1.854  -0.338  -0.916  0.00  0.00     0.074 H 
BRANCH  11  14
ATOM     14  C1  <0> d           1.125  -2.165  -0.020  0.00  0.00    -0.056 C 
ATOM     15  H2  <0> d           2.111  -2.651  -0.032  0.00  0.00     0.030 H 
ATOM     16  H3  <0> d           0.558  -2.463  -0.915  0.00  0.00     0.030 H 
ATOM     17  H4  <0> d           0.575  -2.473   0.881  0.00  0.00     0.030 H 
ENDBRANCH  11  14
ENDBRANCH  10  11
ENDBRANCH   1  10
BRANCH   7  18
ATOM     18  N3  <0> d           2.354   4.011   0.001  0.00  0.00    -0.384 N 
ATOM     19  H8  <0> d           3.297   3.445  -0.011  0.00  0.00     0.157 HD
ATOM     20  H9  <0> d           2.373   5.111   0.007  0.00  0.00     0.157 HD
ENDBRANCH   7  18
TORSDOF 4
