REMARK  3 active torsions:
REMARK  status: ('A' for Active; 'I' for Inactive)
REMARK    1  A    between atoms: C1_1  and  C2_2 
REMARK    2  A    between atoms: C2_2  and  C3_3 
REMARK    3  A    between atoms: C3_3  and  C4_5 
ROOT
ATOM      1  C4  <0> d          -0.137   3.797   0.024  0.00  0.00     0.102 A 
ATOM      2  C5  <0> d           1.112   3.176   0.009  0.00  0.00    -0.051 A 
ATOM      3  C6  <0> d           1.175   1.792   0.001  0.00  0.00    -0.079 A 
ATOM      4  C7  <0> d          -0.013   1.076   0.008  0.00  0.00    -0.066 A 
ATOM      5  C8  <0> d          -1.219   1.759   0.017  0.00  0.00     0.003 A 
ATOM      6  N1  <0> d          -1.251   3.073   0.031  0.00  0.00    -0.257 NA
ATOM      7  H6  <0> d           2.017   3.765   0.003  0.00  0.00     0.087 H 
ATOM      8  H7  <0> d           2.127   1.282  -0.011  0.00  0.00     0.083 H 
ATOM      9  H8  <0> d           0.002  -0.004   0.002  0.00  0.00     0.085 H 
ATOM     10  H9  <0> d          -2.145   1.204   0.019  0.00  0.00     0.114 H 
ENDROOT
BRANCH   1  11
ATOM     11  C3  <0> d          -0.222   5.271   0.032  0.00  0.00     0.177 C 
ATOM     12  O1  <0> d           0.792   5.936   0.026  0.00  0.00    -0.291 OA
BRANCH  11  13
ATOM     13  C2  <0> d          -1.568   5.948   0.049  0.00  0.00    -0.007 C 
ATOM     14  H4  <0> d          -2.085   5.681  -0.764  0.00  0.00     0.044 H 
ATOM     15  H5  <0> d          -2.114   5.648   0.943  0.00  0.00     0.044 H 
BRANCH  13  16
ATOM     16  C1  <0> d          -1.375   7.466   0.054  0.00  0.00    -0.070 C 
ATOM     17  H1  <0> d          -0.810   7.757   0.941  0.00  0.00     0.028 H 
ATOM     18  H2  <0> d          -0.828   7.766  -0.839  0.00  0.00     0.028 H 
ATOM     19  H3  <0> d          -2.348   7.956   0.066  0.00  0.00     0.028 H 
ENDBRANCH  13  16
ENDBRANCH  11  13
ENDBRANCH   1  11
TORSDOF 3
