REMARK  1 active torsions:
REMARK  status: ('A' for Active; 'I' for Inactive)
REMARK    1  A    between atoms: C2_2  and  C3_3 
ROOT
ATOM      1  C1  <0> d           0.018  -1.178  -0.004  0.00  0.00    -0.149 C 
ATOM      2  C2  <0> d           0.002  -0.004   0.002  0.00  0.00    -0.075 C 
ATOM      3  H1  <0> d           0.032  -2.228  -0.010  0.00  0.00     0.166 H 
ENDROOT
BRANCH   2   4
ATOM      4  C3  <0> d          -0.017   1.428   0.010  0.00  0.00     0.058 A 
ATOM      5  C8  <0> d           1.182   2.145   0.002  0.00  0.00     0.138 A 
ATOM      6  C7  <0> d           1.157   3.527   0.005  0.00  0.00    -0.004 A 
ATOM      7  F1  <0> d           2.363   1.490  -0.013  0.00  0.00    -0.204 F 
ATOM      8  C6  <0> d          -0.053   4.200   0.026  0.00  0.00     0.157 A 
ATOM      9  H3  <0> d           2.083   4.083  -0.005  0.00  0.00     0.093 H 
ATOM     10  C5  <0> d          -1.247   3.492   0.039  0.00  0.00     0.156 A 
ATOM     11  F2  <0> d          -0.071   5.551   0.034  0.00  0.00    -0.203 F 
ATOM     12  C4  <0> d          -1.234   2.112   0.031  0.00  0.00    -0.021 A 
ATOM     13  F3  <0> d          -2.424   4.155   0.059  0.00  0.00    -0.203 F 
ATOM     14  H2  <0> d          -2.163   1.562   0.041  0.00  0.00     0.090 H 
ENDBRANCH   2   4
TORSDOF 1
