REMARK  5 active torsions:
REMARK  status: ('A' for Active; 'I' for Inactive)
REMARK    1  A    between atoms: C1_1  and  N1_2 
REMARK    2  A    between atoms: C2_3  and  C5_8 
REMARK    3  A    between atoms: C3_4  and  N3_7 
REMARK    4  A    between atoms: C5_8  and  O2_10 
REMARK    5  A    between atoms: O2_10  and  C6_11 
ROOT
ATOM      1  N1  <0> d           1.328  -0.364  -0.013  0.00  0.00    -0.266 N 
ATOM      2  C2  <0> d           0.002  -0.004   0.002  0.00  0.00     0.155 A 
ATOM      3  C3  <0> d          -0.017   1.389   0.010  0.00  0.00     0.080 A 
ATOM      4  C4  <0> d           1.334   1.774  -0.001  0.00  0.00     0.049 A 
ATOM      5  N2  <0> d           2.062   0.689  -0.014  0.00  0.00    -0.182 NA
ATOM      6  H4  <0> d           1.705   2.788   0.001  0.00  0.00     0.121 H 
ENDROOT
BRANCH   2   7
ATOM      7  C5  <0> d          -1.154  -0.900   0.009  0.00  0.00     0.313 C 
ATOM      8  O1  <0> d          -2.280  -0.441   0.022  0.00  0.00    -0.257 OA
BRANCH   7   9
ATOM      9  O2  <0> d          -0.971  -2.237   0.000  0.00  0.00    -0.321 OA
BRANCH   9  10
ATOM     10  C6  <0> d          -2.144  -3.052   0.007  0.00  0.00     0.013 C 
ATOM     11  H7  <0> d          -2.727  -2.842   0.904  0.00  0.00     0.067 H 
ATOM     12  H8  <0> d          -2.744  -2.833  -0.876  0.00  0.00     0.067 H 
ATOM     13  H9  <0> d          -1.857  -4.104  -0.001  0.00  0.00     0.067 H 
ENDBRANCH   9  10
ENDBRANCH   7   9
ENDBRANCH   2   7
BRANCH   1  14
ATOM     14  C1  <0> d           1.828  -1.741  -0.025  0.00  0.00     0.003 C 
ATOM     15  H1  <0> d           1.942  -2.076  -1.056  0.00  0.00     0.059 H 
ATOM     16  H2  <0> d           2.793  -1.782   0.479  0.00  0.00     0.059 H 
ATOM     17  H3  <0> d           1.121  -2.390   0.491  0.00  0.00     0.059 H 
ENDBRANCH   1  14
BRANCH   3  18
ATOM     18  N3  <0> d          -1.134   2.220   0.020  0.00  0.00    -0.396 N 
ATOM     19  H5  <0> d          -2.025   1.836   0.022  0.00  0.00     0.156 HD
ATOM     20  H6  <0> d          -1.022   3.184   0.024  0.00  0.00     0.156 HD
ENDBRANCH   3  18
TORSDOF 5
