REMARK  2 active torsions:
REMARK  status: ('A' for Active; 'I' for Inactive)
REMARK    1  A    between atoms: C3_3  and  C6_9 
REMARK    2  A    between atoms: C6_9  and  O2_10 
ROOT
ATOM      1  C1  <0> d          -0.019   1.526   0.010  0.00  0.00    -0.055 C 
ATOM      2  C2  <0> d           1.429   2.031  -0.001  0.00  0.00    -0.044 C 
ATOM      3  C3  <0> d           2.061   1.676  -1.347  0.00  0.00     0.032 C 
ATOM      4  H1  <0> d           1.605   2.283  -2.130  0.00  0.00     0.075 H 
ATOM      5  N1  <0> d           1.857   0.266  -1.651  0.00  0.00    -0.354 N 
ATOM      6  C4  <0> d           0.927  -0.497  -1.074  0.00  0.00     0.217 C 
ATOM      7  O1  <0> d           0.823  -1.649  -1.436  0.00  0.00    -0.274 OA
ATOM      8  C5  <0> d           0.002  -0.004   0.002  0.00  0.00     0.009 C 
ATOM      9  H2  <0> d          -0.524   1.882   0.908  0.00  0.00     0.033 H 
ATOM     10  H3  <0> d          -0.541   1.891  -0.874  0.00  0.00     0.033 H 
ATOM     11  H4  <0> d           1.441   3.112   0.135  0.00  0.00     0.036 H 
ATOM     12  H5  <0> d           1.989   1.553   0.803  0.00  0.00     0.036 H 
ATOM     13  H6  <0> d           2.433  -0.145  -2.315  0.00  0.00     0.162 HD
ATOM     14  H7  <0> d           0.347  -0.367   0.970  0.00  0.00     0.047 H 
ATOM     15  H8  <0> d          -1.004  -0.379  -0.186  0.00  0.00     0.047 H 
ENDROOT
BRANCH   3  16
ATOM     16  C6  <0> d           3.563   1.965  -1.293  0.00  0.00     0.035 C 
ATOM     17  H9  <0> d           3.723   3.001  -0.996  0.00  0.00     0.077 H 
ATOM     18  H10 <0> d           4.034   1.302  -0.568  0.00  0.00     0.077 H 
BRANCH  16  19
ATOM     19  O2  <0> d           4.136   1.746  -2.584  0.00  0.00    -0.399 OA
ATOM     20  H11 <0> d           5.089   1.910  -2.624  0.00  0.00     0.209 HD
ENDBRANCH  16  19
ENDBRANCH   3  16
TORSDOF 2
