REMARK  3 active torsions:
REMARK  status: ('A' for Active; 'I' for Inactive)
REMARK    1  A    between atoms: C1_1  and  C2_2 
REMARK    2  A    between atoms: C4_4  and  N2_10 
REMARK    3  A    between atoms: C7_7  and  N1_8 
ROOT
ATOM      1  C2  <0> d           0.002  -0.004   0.002  0.00  0.00    -0.034 A 
ATOM      2  C3  <0> d           0.006  -0.688  -1.199  0.00  0.00    -0.047 A 
ATOM      3  C4  <0> d           0.025  -2.075  -1.207  0.00  0.00     0.065 A 
ATOM      4  C5  <0> d           0.040  -2.778  -0.007  0.00  0.00     0.144 A 
ATOM      5  C6  <0> d           0.036  -2.093   1.194  0.00  0.00    -0.018 A 
ATOM      6  C7  <0> d           0.023  -0.704   1.200  0.00  0.00     0.034 A 
ATOM      7  F1  <0> d           0.058  -4.129  -0.015  0.00  0.00    -0.204 F 
ATOM      8  H4  <0> d          -0.006  -0.142  -2.131  0.00  0.00     0.088 H 
ATOM      9  H5  <0> d           0.048  -2.638   2.126  0.00  0.00     0.091 H 
ENDROOT
BRANCH   1  10
ATOM     10  C1  <0> d          -0.018   1.503   0.010  0.00  0.00    -0.049 C 
ATOM     11  H1  <0> d           1.004   1.880   0.003  0.00  0.00     0.033 H 
ATOM     12  H2  <0> d          -0.545   1.864  -0.873  0.00  0.00     0.033 H 
ATOM     13  H3  <0> d          -0.529   1.854   0.907  0.00  0.00     0.033 H 
ENDBRANCH   1  10
BRANCH   6  14
ATOM     14  N1  <0> d           0.025  -0.010   2.416  0.00  0.00    -0.399 N 
ATOM     15  H6  <0> d           0.013   0.960   2.421  0.00  0.00     0.156 HD
ATOM     16  H7  <0> d           0.040  -0.499   3.254  0.00  0.00     0.156 HD
ENDBRANCH   6  14
BRANCH   3  17
ATOM     17  N2  <0> d           0.028  -2.769  -2.425  0.00  0.00    -0.397 N 
ATOM     18  H8  <0> d           0.017  -2.279  -3.263  0.00  0.00     0.156 HD
ATOM     19  H9  <0> d           0.041  -3.739  -2.431  0.00  0.00     0.156 HD
ENDBRANCH   3  17
TORSDOF 3
