REMARK  2 active torsions:
REMARK  status: ('A' for Active; 'I' for Inactive)
REMARK    1  A    between atoms: C8_9  and  C10_11 
REMARK    2  A    between atoms: C10_11  and  O1_12 
ROOT
ATOM      1  C1  <0> d          -0.017   1.389   0.010  0.00  0.00    -0.082 A 
ATOM      2  C2  <0> d           1.141   2.107   0.003  0.00  0.00    -0.072 A 
ATOM      3  C3  <0> d           2.370   1.434  -0.013  0.00  0.00    -0.023 A 
ATOM      4  C4  <0> d           3.601   2.117  -0.020  0.00  0.00    -0.055 A 
ATOM      5  C5  <0> d           4.752   1.389  -0.035  0.00  0.00     0.003 A 
ATOM      6  N1  <0> d           4.742   0.063  -0.042  0.00  0.00    -0.272 NA
ATOM      7  C6  <0> d           3.634  -0.639  -0.036  0.00  0.00     0.013 A 
ATOM      8  C7  <0> d           2.391   0.014  -0.021  0.00  0.00     0.000 A 
ATOM      9  C8  <0> d           1.178  -0.691  -0.013  0.00  0.00    -0.022 A 
ATOM     10  C9  <0> d           0.002  -0.004   0.002  0.00  0.00    -0.074 A 
ATOM     11  H1  <0> d          -0.964   1.908   0.026  0.00  0.00     0.083 H 
ATOM     12  H2  <0> d           1.112   3.187   0.008  0.00  0.00     0.084 H 
ATOM     13  H3  <0> d           3.631   3.196  -0.015  0.00  0.00     0.087 H 
ATOM     14  H4  <0> d           5.699   1.907  -0.041  0.00  0.00     0.114 H 
ATOM     15  H5  <0> d           3.678  -1.719  -0.043  0.00  0.00     0.116 H 
ATOM     16  H6  <0> d          -0.931  -0.548   0.008  0.00  0.00     0.084 H 
ENDROOT
BRANCH   9  17
ATOM     17  C10 <0> d           1.176  -2.198  -0.021  0.00  0.00     0.041 C 
ATOM     18  H7  <0> d           1.681  -2.557  -0.918  0.00  0.00     0.081 H 
ATOM     19  H8  <0> d           1.698  -2.567   0.862  0.00  0.00     0.081 H 
BRANCH  17  20
ATOM     20  O1  <0> d          -0.172  -2.673  -0.011  0.00  0.00    -0.396 OA
ATOM     21  H9  <0> d          -0.249  -3.637  -0.015  0.00  0.00     0.209 HD
ENDBRANCH  17  20
ENDBRANCH   9  17
TORSDOF 2
