REMARK  3 active torsions:
REMARK  status: ('A' for Active; 'I' for Inactive)
REMARK    1  A    between atoms: C4_4  and  C7_7 
REMARK    2  A    between atoms: C4_4  and  O2_9 
REMARK    3  A    between atoms: C7_7  and  O1_8 
ROOT
ATOM      1  C1  <0> d           1.169   3.072   2.506  0.00  0.00    -0.065 C 
ATOM      2  C2  <0> d           0.392   3.519   1.266  0.00  0.00    -0.062 C 
ATOM      3  C3  <0> d           1.145   3.085   0.008  0.00  0.00    -0.034 C 
ATOM      4  C4  <0> d           1.286   1.562  -0.002  0.00  0.00     0.079 C 
ATOM      5  C5  <0> d           2.064   1.114   1.238  0.00  0.00    -0.034 C 
ATOM      6  C6  <0> d           1.310   1.548   2.497  0.00  0.00    -0.062 C 
ATOM      7  H1  <0> d           2.158   3.529   2.499  0.00  0.00     0.033 H 
ATOM      8  H2  <0> d           0.632   3.381   3.403  0.00  0.00     0.033 H 
ATOM      9  H3  <0> d           0.291   4.605   1.273  0.00  0.00     0.033 H 
ATOM     10  H4  <0> d          -0.598   3.063   1.274  0.00  0.00     0.033 H 
ATOM     11  H5  <0> d           2.135   3.542   0.001  0.00  0.00     0.037 H 
ATOM     12  H6  <0> d           0.591   3.404  -0.875  0.00  0.00     0.037 H 
ATOM     13  H7  <0> d           2.164   0.029   1.231  0.00  0.00     0.037 H 
ATOM     14  H8  <0> d           3.053   1.571   1.231  0.00  0.00     0.037 H 
ATOM     15  H9  <0> d           1.864   1.229   3.380  0.00  0.00     0.033 H 
ATOM     16  H10 <0> d           0.321   1.091   2.503  0.00  0.00     0.033 H 
ENDROOT
BRANCH   4  17
ATOM     17  C7  <0> d           2.040   1.127  -1.261  0.00  0.00     0.045 C 
ATOM     18  H11 <0> d           1.486   1.446  -2.144  0.00  0.00     0.078 H 
ATOM     19  H12 <0> d           3.029   1.584  -1.268  0.00  0.00     0.078 H 
BRANCH  17  20
ATOM     20  O1  <0> d           2.172  -0.295  -1.270  0.00  0.00    -0.398 OA
ATOM     21  H13 <0> d           2.641  -0.642  -2.041  0.00  0.00     0.209 HD
ENDBRANCH  17  20
ENDBRANCH   4  17
BRANCH   4  22
ATOM     22  O2  <0> d          -0.011   0.963   0.007  0.00  0.00    -0.388 OA
ATOM     23  H14 <0> d           0.002  -0.004   0.002  0.00  0.00     0.210 HD
ENDBRANCH   4  22
TORSDOF 3
