REMARK  3 active torsions:
REMARK  status: ('A' for Active; 'I' for Inactive)
REMARK    1  A    between atoms: C1_1  and  C2_2 
REMARK    2  A    between atoms: C4_4  and  N2_7 
REMARK       I    between atoms: N2_7  and  C5_8 
REMARK    3  A    between atoms: C5_8  and  C6_10 
ROOT
ATOM      1  C2  <0> d           1.041   1.923   0.002  0.00  0.00     0.078 A 
ATOM      2  C3  <0> d          -0.013   1.076   0.008  0.00  0.00    -0.006 A 
ATOM      3  C4  <0> d          -1.143   1.935   0.017  0.00  0.00     0.160 A 
ATOM      4  N1  <0> d          -0.674   3.155   0.025  0.00  0.00    -0.110 NA
ATOM      5  O1  <0> d           0.535   3.165   0.014  0.00  0.00    -0.216 OA
ATOM      6  H4  <0> d           0.002  -0.004   0.002  0.00  0.00     0.093 H 
ENDROOT
BRANCH   3   7
ATOM      7  N2  <0> d          -2.485   1.554   0.020  0.00  0.00    -0.310 N 
ATOM      8  C5  <0> d          -2.814   0.247   0.015  0.00  0.00     0.219 C 
ATOM      9  O2  <0> d          -1.944  -0.597   0.006  0.00  0.00    -0.274 OA
ATOM     10  H5  <0> d          -3.181   2.229   0.027  0.00  0.00     0.170 HD
BRANCH   8  11
ATOM     11  C6  <0> d          -4.264  -0.165   0.018  0.00  0.00    -0.002 C 
ATOM     12  H6  <0> d          -4.757   0.235  -0.868  0.00  0.00     0.040 H 
ATOM     13  H7  <0> d          -4.332  -1.253   0.012  0.00  0.00     0.040 H 
ATOM     14  H8  <0> d          -4.750   0.225   0.912  0.00  0.00     0.040 H 
ENDBRANCH   8  11
ENDBRANCH   3   7
BRANCH   1  15
ATOM     15  C1  <0> d           2.500   1.546  -0.014  0.00  0.00    -0.029 C 
ATOM     16  H1  <0> d           2.842   1.461  -1.046  0.00  0.00     0.036 H 
ATOM     17  H2  <0> d           3.080   2.314   0.499  0.00  0.00     0.036 H 
ATOM     18  H3  <0> d           2.634   0.590   0.493  0.00  0.00     0.036 H 
ENDBRANCH   1  15
TORSDOF 3
