REMARK  1 active torsions:
REMARK  status: ('A' for Active; 'I' for Inactive)
REMARK    1  A    between atoms: C3_3  and  N1_8 
ROOT
ATOM      1  C1  <0> d          -0.017   1.378   0.010  0.00  0.00    -0.079 A 
ATOM      2  C2  <0> d           1.169   2.087   0.002  0.00  0.00    -0.058 A 
ATOM      3  C3  <0> d           2.382   1.410  -0.013  0.00  0.00     0.027 A 
ATOM      4  C4  <0> d           2.398   0.021  -0.021  0.00  0.00    -0.037 A 
ATOM      5  C5  <0> d           1.208  -0.683  -0.013  0.00  0.00     0.036 A 
ATOM      6  C6  <0> d           0.002  -0.004   0.002  0.00  0.00    -0.062 A 
ATOM      7 Cl1  <0> d           1.227  -2.419  -0.023  0.00  0.00    -0.084 Cl
ATOM      8  H1  <0> d          -0.960   1.905   0.026  0.00  0.00     0.083 H 
ATOM      9  H2  <0> d           1.153   3.167   0.008  0.00  0.00     0.086 H 
ATOM     10  H3  <0> d           3.339  -0.509  -0.033  0.00  0.00     0.089 H 
ATOM     11  H4  <0> d          -0.926  -0.556   0.008  0.00  0.00     0.086 H 
ENDROOT
BRANCH   3  12
ATOM     12  N1  <0> d           3.582   2.124  -0.021  0.00  0.00    -0.399 N 
ATOM     13  H5  <0> d           3.569   3.094  -0.016  0.00  0.00     0.156 HD
ATOM     14  H6  <0> d           4.428   1.650  -0.032  0.00  0.00     0.156 HD
ENDBRANCH   3  12
TORSDOF 1
