REMARK  2 active torsions:
REMARK  status: ('A' for Active; 'I' for Inactive)
REMARK    1  A    between atoms: C3_4  and  C5_8 
REMARK    2  A    between atoms: C5_8  and  O3_9 
ROOT
ATOM      1  C1  <0> d          -0.756   1.594  -1.231  0.00  0.00     0.039 C 
ATOM      2  C2  <0> d          -0.013   1.086   0.008  0.00  0.00     0.040 C 
ATOM      3  O1  <0> d          -0.685   1.548   1.183  0.00  0.00    -0.380 OA
ATOM      4  C3  <0> d          -0.799   2.973   1.254  0.00  0.00     0.079 C 
ATOM      5  H1  <0> d           0.197   3.417   1.290  0.00  0.00     0.089 H 
ATOM      6  C4  <0> d          -1.542   3.482   0.016  0.00  0.00     0.045 C 
ATOM      7  O2  <0> d          -0.868   3.019  -1.159  0.00  0.00    -0.386 OA
ATOM      8  H2  <0> d          -0.202   1.318  -2.127  0.00  0.00     0.077 H 
ATOM      9  H3  <0> d          -1.751   1.151  -1.266  0.00  0.00     0.077 H 
ATOM     10  H4  <0> d           0.002  -0.004   0.002  0.00  0.00     0.077 H 
ATOM     11  H5  <0> d           1.010   1.464   0.000  0.00  0.00     0.077 H 
ATOM     12  H6  <0> d          -1.557   4.571   0.022  0.00  0.00     0.078 H 
ATOM     13  H7  <0> d          -2.564   3.102   0.023  0.00  0.00     0.078 H 
ENDROOT
BRANCH   4  14
ATOM     14  C5  <0> d          -1.577   3.361   2.513  0.00  0.00     0.043 C 
ATOM     15  H8  <0> d          -1.744   4.439   2.519  0.00  0.00     0.078 H 
ATOM     16  H9  <0> d          -2.536   2.845   2.521  0.00  0.00     0.078 H 
BRANCH  14  17
ATOM     17  O3  <0> d          -0.826   2.990   3.671  0.00  0.00    -0.398 OA
ATOM     18  H10 <0> d          -1.260   3.207   4.508  0.00  0.00     0.209 HD
ENDBRANCH  14  17
ENDBRANCH   4  14
TORSDOF 2
