REMARK  4 active torsions:
REMARK  status: ('A' for Active; 'I' for Inactive)
REMARK    1  A    between atoms: C1_1  and  S1_2 
REMARK    2  A    between atoms: S1_2  and  C2_3 
REMARK    3  A    between atoms: C7_8  and  C8_9 
REMARK    4  A    between atoms: C8_9  and  O1_10 
ROOT
ATOM      1  C2  <0> d          -2.480   0.986   1.367  0.00  0.00     0.008 A 
ATOM      2  C3  <0> d          -2.816   0.203   0.268  0.00  0.00    -0.066 A 
ATOM      3  C4  <0> d          -4.083  -0.336   0.170  0.00  0.00    -0.082 A 
ATOM      4  C5  <0> d          -5.020  -0.090   1.157  0.00  0.00    -0.082 A 
ATOM      5  C6  <0> d          -4.691   0.692   2.248  0.00  0.00    -0.073 A 
ATOM      6  C7  <0> d          -3.424   1.231   2.356  0.00  0.00    -0.018 A 
ATOM      7  H4  <0> d          -2.086   0.014  -0.505  0.00  0.00     0.085 H 
ATOM      8  H5  <0> d          -4.344  -0.948  -0.682  0.00  0.00     0.083 H 
ATOM      9  H6  <0> d          -6.012  -0.510   1.075  0.00  0.00     0.083 H 
ATOM     10  H7  <0> d          -5.425   0.883   3.017  0.00  0.00     0.084 H 
ENDROOT
BRANCH   1  11
ATOM     11  S1  <0> d          -0.862   1.671   1.500  0.00  0.00    -0.134 SA
BRANCH  11  12
ATOM     12  C1  <0> d          -0.013   1.086   0.008  0.00  0.00    -0.030 C 
ATOM     13  H1  <0> d           0.002  -0.004   0.002  0.00  0.00     0.042 H 
ATOM     14  H2  <0> d           1.010   1.463   0.000  0.00  0.00     0.042 H 
ATOM     15  H3  <0> d          -0.540   1.447  -0.875  0.00  0.00     0.042 H 
ENDBRANCH  11  12
ENDBRANCH   1  11
BRANCH   6  16
ATOM     16  C8  <0> d          -3.066   2.084   3.546  0.00  0.00     0.042 C 
ATOM     17  H8  <0> d          -2.234   1.628   4.083  0.00  0.00     0.081 H 
ATOM     18  H9  <0> d          -2.777   3.079   3.205  0.00  0.00     0.081 H 
BRANCH  16  19
ATOM     19  O1  <0> d          -4.195   2.188   4.415  0.00  0.00    -0.396 OA
ATOM     20  H10 <0> d          -4.037   2.724   5.204  0.00  0.00     0.209 HD
ENDBRANCH  16  19
ENDBRANCH   6  16
TORSDOF 4
