REMARK  1 active torsions:
REMARK  status: ('A' for Active; 'I' for Inactive)
REMARK    1  A    between atoms: C1_1  and  N1_2 
ROOT
ATOM      1  N1  <0> d           0.002  -0.004   0.002  0.00  0.00    -0.329 N 
ATOM      2  C2  <0> d           0.022  -0.679   1.181  0.00  0.00    -0.015 A 
ATOM      3  C3  <0> d           0.040  -2.029   1.207  0.00  0.00    -0.033 A 
ATOM      4  C4  <0> d           0.038  -2.753  -0.002  0.00  0.00     0.113 A 
ATOM      5  C5  <0> d           0.018  -2.059  -1.198  0.00  0.00     0.018 A 
ATOM      6  C6  <0> d          -0.006  -0.660  -1.173  0.00  0.00     0.249 A 
ATOM      7  O1  <0> d          -0.029  -0.033  -2.221  0.00  0.00    -0.268 OA
ATOM      8  O2  <0> d           0.055  -4.107   0.008  0.00  0.00    -0.192 OA
ATOM      9  H4  <0> d           0.024  -0.128   2.110  0.00  0.00     0.111 H 
ATOM     10  H5  <0> d           0.056  -2.552   2.152  0.00  0.00     0.090 H 
ATOM     11  H6  <0> d           0.016  -2.590  -2.138  0.00  0.00     0.096 H 
ENDROOT
BRANCH   1  12
ATOM     12  C1  <0> d          -0.018   1.461   0.010  0.00  0.00    -0.012 C 
ATOM     13  H1  <0> d          -0.008   1.822   1.049  0.00  0.00     0.057 H 
ATOM     14  H2  <0> d          -0.928   1.818  -0.494  0.00  0.00     0.057 H 
ATOM     15  H3  <0> d           0.868   1.842  -0.519  0.00  0.00     0.057 H 
ENDBRANCH   1  12
TORSDOF 1
