REMARK  3 active torsions:
REMARK  status: ('A' for Active; 'I' for Inactive)
REMARK    1  A    between atoms: C3_5  and  C4_6 
REMARK    2  A    between atoms: C4_6  and  C5_7 
REMARK    3  A    between atoms: C5_7  and  C6_8 
ROOT
ATOM      1  C4  <0> d          -0.013   1.086   0.008  0.00  0.00    -0.009 C 
ATOM      2  H3  <0> d           0.002  -0.004   0.002  0.00  0.00     0.043 H 
ATOM      3  H4  <0> d           1.010   1.463   0.000  0.00  0.00     0.043 H 
ENDROOT
BRANCH   1   4
ATOM      4  C3  <0> d          -0.718   1.572   1.248  0.00  0.00     0.080 A 
ATOM      5  C1  <0> d          -1.716   0.942   1.913  0.00  0.00    -0.033 A 
ATOM      6  C2  <0> d          -2.012   1.811   2.988  0.00  0.00     0.031 A 
ATOM      7  H1  <0> d          -2.177  -0.006   1.678  0.00  0.00     0.089 H 
ATOM      8  N1  <0> d          -1.212   2.831   2.867  0.00  0.00    -0.141 NA
ATOM      9  H2  <0> d          -2.758   1.661   3.754  0.00  0.00     0.118 H 
ATOM     10  O1  <0> d          -0.486   2.716   1.907  0.00  0.00    -0.218 OA
ENDBRANCH   1   4
BRANCH   1  11
ATOM     11  C5  <0> d          -0.753   1.593  -1.232  0.00  0.00     0.021 C 
ATOM     12  H5  <0> d          -1.775   1.215  -1.224  0.00  0.00     0.049 H 
ATOM     13  H6  <0> d          -0.767   2.683  -1.226  0.00  0.00     0.049 H 
BRANCH  11  14
ATOM     14  C6  <0> d          -0.047   1.107  -2.471  0.00  0.00     0.172 C 
ATOM     15  O2  <0> d           0.945   0.425  -2.374  0.00  0.00    -0.648 OA
ATOM     16  O3  <0> d          -0.522   1.431  -3.684  0.00  0.00    -0.648 OA
ENDBRANCH  11  14
ENDBRANCH   1  11
TORSDOF 3
