REMARK  1 active torsions:
REMARK  status: ('A' for Active; 'I' for Inactive)
REMARK    1  A    between atoms: C6_9  and  N4_11 
ROOT
ATOM      1  C1  <0> d          -3.474   4.428   0.043  0.00  0.00    -0.037 A 
ATOM      2  C2  <0> d          -4.849   4.312   0.049  0.00  0.00     0.004 A 
ATOM      3  N1  <0> d          -5.437   3.128   0.046  0.00  0.00    -0.271 NA
ATOM      4  C3  <0> d          -4.753   2.002   0.037  0.00  0.00     0.032 A 
ATOM      5  C4  <0> d          -3.360   2.025   0.030  0.00  0.00     0.120 A 
ATOM      6  C5  <0> d          -2.705   3.272   0.033  0.00  0.00     0.081 A 
ATOM      7  N2  <0> d          -1.353   2.999   0.030  0.00  0.00    -0.188 N 
ATOM      8  H1  <0> d          -0.612   3.670   0.037  0.00  0.00     0.184 HD
ATOM      9  C6  <0> d          -1.214   1.639   0.017  0.00  0.00     0.699 A 
ATOM     10  N3  <0> d          -2.395   1.070   0.020  0.00  0.00    -0.061 NA
ATOM     11  H2  <0> d          -3.005   5.401   0.046  0.00  0.00     0.089 H 
ATOM     12  H3  <0> d          -5.456   5.205   0.057  0.00  0.00     0.114 H 
ATOM     13  H4  <0> d          -5.275   1.056   0.034  0.00  0.00     0.118 H 
ENDROOT
BRANCH   9  14
ATOM     14  N4  <0> d          -0.011   0.966   0.007  0.00  0.00    -0.233 N 
ATOM     15  H5  <0> d           0.002  -0.004   0.002  0.00  0.00     0.174 HD
ATOM     16  H6  <0> d           0.822   1.462   0.002  0.00  0.00     0.174 HD
ENDBRANCH   9  14
TORSDOF 1
