REMARK  2 active torsions:
REMARK  status: ('A' for Active; 'I' for Inactive)
REMARK    1  A    between atoms: C1_1  and  O1_2 
REMARK    2  A    between atoms: O1_2  and  C2_3 
ROOT
ATOM      1  C2  <0> d           2.326   1.373  -0.013  0.00  0.00     0.248 A 
ATOM      2  N1  <0> d           1.158   2.067   0.002  0.00  0.00    -0.288 N 
ATOM      3  H1  <0> d           1.169   3.037   0.007  0.00  0.00     0.172 HD
ATOM      4  C3  <0> d          -0.017   1.403   0.010  0.00  0.00     0.249 A 
ATOM      5  O2  <0> d          -1.075   2.010   0.018  0.00  0.00    -0.268 OA
ATOM      6  C4  <0> d           0.002  -0.004   0.002  0.00  0.00    -0.000 A 
ATOM      7  C5  <0> d           1.206  -0.646  -0.013  0.00  0.00     0.012 A 
ATOM      8  N2  <0> d           2.337   0.058  -0.020  0.00  0.00    -0.221 NA
ATOM      9  H5  <0> d          -0.920  -0.566   0.007  0.00  0.00     0.094 H 
ATOM     10  H6  <0> d           1.242  -1.725  -0.019  0.00  0.00     0.115 H 
ENDROOT
BRANCH   1  11
ATOM     11  O1  <0> d           3.495   2.045  -0.021  0.00  0.00    -0.326 OA
BRANCH  11  12
ATOM     12  C1  <0> d           4.711   1.252  -0.037  0.00  0.00     0.013 C 
ATOM     13  H2  <0> d           4.744   0.618   0.849  0.00  0.00     0.067 H 
ATOM     14  H3  <0> d           4.726   0.627  -0.931  0.00  0.00     0.067 H 
ATOM     15  H4  <0> d           5.577   1.914  -0.042  0.00  0.00     0.067 H 
ENDBRANCH  11  12
ENDBRANCH   1  11
TORSDOF 2
