REMARK  2 active torsions:
REMARK  status: ('A' for Active; 'I' for Inactive)
REMARK    1  A    between atoms: C1_1  and  N1_2 
REMARK    2  A    between atoms: C5_7  and  N5_11 
ROOT
ATOM      1  N1  <0> d          -0.516  -0.033   0.103  0.00  0.00    -0.340 N 
ATOM      2  C2  <0> d          -0.759  -0.839  -0.954  0.00  0.00     0.068 A 
ATOM      3  N2  <0> d          -0.534  -2.083  -0.631  0.00  0.00    -0.222 NA
ATOM      4  C3  <0> d          -0.143  -2.155   0.655  0.00  0.00     0.182 A 
ATOM      5  C4  <0> d          -0.125  -0.841   1.150  0.00  0.00     0.129 A 
ATOM      6  C5  <0> d           0.251  -0.631   2.478  0.00  0.00     0.153 A 
ATOM      7  N3  <0> d           0.576  -1.687   3.220  0.00  0.00    -0.222 NA
ATOM      8  C6  <0> d           0.546  -2.908   2.719  0.00  0.00     0.091 A 
ATOM      9  N4  <0> d           0.200  -3.154   1.475  0.00  0.00    -0.220 NA
ATOM     10  H4  <0> d          -1.088  -0.503  -1.926  0.00  0.00     0.143 H 
ATOM     11  H5  <0> d           0.817  -3.737   3.356  0.00  0.00     0.146 H 
ENDROOT
BRANCH   1  12
ATOM     12  C1  <0> d          -0.650   1.426   0.134  0.00  0.00    -0.013 C 
ATOM     13  H1  <0> d           0.321   1.884  -0.051  0.00  0.00     0.057 H 
ATOM     14  H2  <0> d          -1.354   1.742  -0.636  0.00  0.00     0.057 H 
ATOM     15  H3  <0> d          -1.018   1.736   1.111  0.00  0.00     0.057 H 
ENDBRANCH   1  12
BRANCH   6  16
ATOM     16  N5  <0> d           0.284   0.647   3.011  0.00  0.00    -0.382 N 
ATOM     17  H6  <0> d           0.144   1.416   2.437  0.00  0.00     0.157 HD
ATOM     18  H7  <0> d           0.448   0.773   3.959  0.00  0.00     0.157 HD
ENDBRANCH   6  16
TORSDOF 2
