REMARK  5 active torsions:
REMARK  status: ('A' for Active; 'I' for Inactive)
REMARK    1  A    between atoms: C1_1  and  C2_2 
REMARK    2  A    between atoms: C2_2  and  C3_3 
REMARK    3  A    between atoms: C2_2  and  C4_4 
REMARK    4  A    between atoms: C4_4  and  O1_6 
REMARK    5  A    between atoms: C4_4  and  S1_7 
ROOT
ATOM      1  C2  <0> d          -0.729   1.579   1.267  0.00  0.00    -0.020 C 
ATOM      2  H5  <0> d          -1.751   1.202   1.275  0.00  0.00     0.044 H 
ENDROOT
BRANCH   1   3
ATOM      3  C1  <0> d          -0.013   1.086   0.008  0.00  0.00    -0.070 C 
ATOM      4  H2  <0> d           0.002  -0.004   0.002  0.00  0.00     0.028 H 
ATOM      5  H3  <0> d           1.010   1.463   0.000  0.00  0.00     0.028 H 
ATOM      6  H4  <0> d          -0.540   1.447  -0.875  0.00  0.00     0.028 H 
ENDBRANCH   1   3
BRANCH   1   7
ATOM      7  C3  <0> d          -0.750   3.109   1.275  0.00  0.00    -0.070 C 
ATOM      8  H6  <0> d          -1.277   3.470   0.392  0.00  0.00     0.028 H 
ATOM      9  H7  <0> d          -1.260   3.461   2.172  0.00  0.00     0.028 H 
ATOM     10  H8  <0> d           0.273   3.486   1.268  0.00  0.00     0.028 H 
ENDBRANCH   1   7
BRANCH   1  11
ATOM     11  C4  <0> d           0.011   1.072   2.506  0.00  0.00     0.152 C 
ATOM     12  H1  <0> d           1.034   1.450   2.499  0.00  0.00     0.112 H 
BRANCH  11  13
ATOM     13  O1  <0> d           0.030  -0.356   2.498  0.00  0.00    -0.377 OA
ATOM     14  H9  <0> d          -0.847  -0.762   2.505  0.00  0.00     0.211 HD
ENDBRANCH  11  13
BRANCH  11  15
ATOM     15  S1  <0> d          -0.838   1.657   3.999  0.00  0.00     0.131 S 
ATOM     16  O2  <0> d          -0.711   3.068   4.113  0.00  0.00    -0.593 OA
ATOM     17  O3  <0> d          -2.109   1.033   4.115  0.00  0.00    -0.593 OA
ATOM     18  O4  <0> d          -0.023   1.099   5.157  0.00  0.00    -0.593 OA
ENDBRANCH  11  15
ENDBRANCH   1  11
TORSDOF 5
