REMARK  1 active torsions:
REMARK  status: ('A' for Active; 'I' for Inactive)
REMARK    1  A    between atoms: C5_6  and  N4_10 
ROOT
ATOM      1  C1  <0> d           2.359   0.028  -0.021  0.00  0.00    -0.061 A 
ATOM      2  C2  <0> d           2.384   1.390  -0.014  0.00  0.00    -0.035 A 
ATOM      3  C3  <0> d           1.168   2.098   0.002  0.00  0.00     0.152 A 
ATOM      4  N1  <0> d           0.879   3.389   0.011  0.00  0.00    -0.238 NA
ATOM      5  C4  <0> d          -0.448   3.542   0.024  0.00  0.00     0.048 A 
ATOM      6  C5  <0> d          -1.026   2.311   0.019  0.00  0.00     0.142 A 
ATOM      7  N2  <0> d          -0.017   1.394   0.010  0.00  0.00    -0.199 N 
ATOM      8  N3  <0> d           0.002  -0.004   0.002  0.00  0.00    -0.177 NA
ATOM      9  C6  <0> d           1.135  -0.654  -0.012  0.00  0.00     0.022 A 
ATOM     10  H1  <0> d           3.284  -0.527  -0.033  0.00  0.00     0.086 H 
ATOM     11  H2  <0> d           3.325   1.919  -0.020  0.00  0.00     0.089 H 
ATOM     12  H3  <0> d          -0.975   4.485   0.033  0.00  0.00     0.120 H 
ATOM     13  H4  <0> d           1.128  -1.734  -0.018  0.00  0.00     0.117 H 
ENDROOT
BRANCH   6  14
ATOM     14  N4  <0> d          -2.399   2.036   0.024  0.00  0.00    -0.383 N 
ATOM     15  H5  <0> d          -2.710   1.117   0.020  0.00  0.00     0.157 HD
ATOM     16  H6  <0> d          -3.039   2.764   0.030  0.00  0.00     0.157 HD
ENDBRANCH   6  14
TORSDOF 1
