REMARK  5 active torsions:
REMARK  status: ('A' for Active; 'I' for Inactive)
REMARK    1  A    between atoms: C1_1  and  C2_2 
REMARK    2  A    between atoms: C2_2  and  C3_3 
REMARK    3  A    between atoms: C3_3  and  C4_4 
REMARK    4  A    between atoms: C3_3  and  C6_6 
REMARK    5  A    between atoms: C4_4  and  C5_5 
ROOT
ATOM      1  C3  <0> d          -0.018   1.503   0.010  0.00  0.00     0.030 C 
ATOM      2  H6  <0> d           1.004   1.880   0.003  0.00  0.00     0.056 H 
ENDROOT
BRANCH   1   3
ATOM      3  C2  <0> d          -0.758   2.010  -1.229  0.00  0.00    -0.056 C 
ATOM      4  H4  <0> d          -1.751   1.562  -1.268  0.00  0.00     0.033 H 
ATOM      5  H5  <0> d          -0.851   3.095  -1.179  0.00  0.00     0.033 H 
BRANCH   3   6
ATOM      6  C1  <0> d           0.025   1.622  -2.485  0.00  0.00    -0.076 C 
ATOM      7  H1  <0> d           1.018   2.070  -2.446  0.00  0.00     0.027 H 
ATOM      8  H2  <0> d           0.118   0.537  -2.535  0.00  0.00     0.027 H 
ATOM      9  H3  <0> d          -0.502   1.983  -3.368  0.00  0.00     0.027 H 
ENDBRANCH   3   6
ENDBRANCH   1   3
BRANCH   1  10
ATOM     10  C4  <0> d          -0.735   1.996   1.269  0.00  0.00    -0.056 C 
ATOM     11  H7  <0> d          -0.828   3.082   1.232  0.00  0.00     0.033 H 
ATOM     12  H8  <0> d          -1.727   1.548   1.322  0.00  0.00     0.033 H 
BRANCH  10  13
ATOM     13  C5  <0> d           0.073   1.595   2.505  0.00  0.00    -0.076 C 
ATOM     14  H9  <0> d          -0.437   1.947   3.402  0.00  0.00     0.027 H 
ATOM     15  H10 <0> d           0.166   0.510   2.542  0.00  0.00     0.027 H 
ATOM     16  H11 <0> d           1.065   2.044   2.452  0.00  0.00     0.027 H 
ENDBRANCH  10  13
ENDBRANCH   1  10
BRANCH   1  17
ATOM     17  C6  <0> d           0.002  -0.004   0.002  0.00  0.00     0.176 C 
ATOM     18  O1  <0> d          -0.521  -0.610  -0.902  0.00  0.00    -0.648 OA
ATOM     19  O2  <0> d           0.602  -0.673   1.000  0.00  0.00    -0.648 OA
ENDBRANCH   1  17
TORSDOF 5
