REMARK  2 active torsions:
REMARK  status: ('A' for Active; 'I' for Inactive)
REMARK    1  A    between atoms: C1_1  and  C2_2 
REMARK    2  A    between atoms: C2_2  and  N1_3 
ROOT
ATOM      1  N1  <0> d          -0.773   1.600   1.177  0.00  0.00    -0.283 NA
ATOM      2  C3  <0> d          -0.033   1.049   0.022  0.00  0.00    -0.013 C 
ATOM      3  C4  <0> d          -0.827   1.595  -1.187  0.00  0.00    -0.028 C 
ATOM      4  C5  <0> d          -1.473   2.848  -0.627  0.00  0.00    -0.036 A 
ATOM      5  C6  <0> d          -1.397   2.785   0.759  0.00  0.00     0.017 A 
ATOM      6  C7  <0> d          -1.919   3.834   1.514  0.00  0.00    -0.062 A 
ATOM      7  C8  <0> d          -2.506   4.914   0.888  0.00  0.00    -0.081 A 
ATOM      8  C9  <0> d          -2.581   4.964  -0.492  0.00  0.00    -0.082 A 
ATOM      9  C10 <0> d          -2.062   3.928  -1.248  0.00  0.00    -0.075 A 
ATOM     10  H6  <0> d           1.006   1.411   0.045  0.00  0.00     0.056 H 
ATOM     11  H7  <0> d          -0.039  -0.050   0.072  0.00  0.00     0.056 H 
ATOM     12  H8  <0> d          -0.135   1.808  -2.015  0.00  0.00     0.042 H 
ATOM     13  H9  <0> d          -1.565   0.846  -1.509  0.00  0.00     0.042 H 
ATOM     14  H10 <0> d          -1.865   3.801   2.592  0.00  0.00     0.086 H 
ATOM     15  H11 <0> d          -2.909   5.724   1.478  0.00  0.00     0.083 H 
ATOM     16  H12 <0> d          -3.043   5.810  -0.978  0.00  0.00     0.083 H 
ATOM     17  H13 <0> d          -2.120   3.966  -2.326  0.00  0.00     0.084 H 
ENDROOT
BRANCH   1  18
ATOM     18  C2  <0> d           0.127   1.845   2.312  0.00  0.00    -0.020 C 
ATOM     19  H4  <0> d           0.695   0.929   2.534  0.00  0.00     0.055 H 
ATOM     20  H5  <0> d          -0.464   2.132   3.194  0.00  0.00     0.055 H 
BRANCH  18  21
ATOM     21  C1  <0> d           1.097   2.974   1.958  0.00  0.00    -0.065 C 
ATOM     22  H1  <0> d           1.772   3.157   2.808  0.00  0.00     0.029 H 
ATOM     23  H2  <0> d           0.530   3.889   1.736  0.00  0.00     0.029 H 
ATOM     24  H3  <0> d           1.689   2.686   1.076  0.00  0.00     0.029 H 
ENDBRANCH  18  21
ENDBRANCH   1  18
TORSDOF 2
