REMARK  3 active torsions:
REMARK  status: ('A' for Active; 'I' for Inactive)
REMARK    1  A    between atoms: C1_1  and  C2_2 
REMARK    2  A    between atoms: C5_5  and  N1_9 
REMARK    3  A    between atoms: C7_7  and  O1_8 
ROOT
ATOM      1  C2  <0> d           0.002  -0.004   0.002  0.00  0.00    -0.029 A 
ATOM      2  C3  <0> d           0.006  -0.688  -1.199  0.00  0.00    -0.072 A 
ATOM      3  C4  <0> d           0.025  -2.069  -1.211  0.00  0.00    -0.057 A 
ATOM      4  C5  <0> d           0.041  -2.774  -0.014  0.00  0.00     0.028 A 
ATOM      5  C6  <0> d           0.037  -2.089   1.193  0.00  0.00    -0.025 A 
ATOM      6  C7  <0> d           0.023  -0.703   1.200  0.00  0.00     0.073 A 
ATOM      7  H4  <0> d          -0.007  -0.141  -2.131  0.00  0.00     0.084 H 
ATOM      8  H5  <0> d           0.027  -2.600  -2.151  0.00  0.00     0.086 H 
ATOM      9  H6  <0> d           0.049  -2.635   2.125  0.00  0.00     0.091 H 
ENDROOT
BRANCH   1  10
ATOM     10  C1  <0> d          -0.018   1.503   0.010  0.00  0.00    -0.049 C 
ATOM     11  H1  <0> d           1.004   1.880   0.003  0.00  0.00     0.033 H 
ATOM     12  H2  <0> d          -0.545   1.864  -0.873  0.00  0.00     0.033 H 
ATOM     13  H3  <0> d          -0.529   1.854   0.907  0.00  0.00     0.033 H 
ENDBRANCH   1  10
BRANCH   6  14
ATOM     14  O1  <0> d           0.025  -0.030   2.381  0.00  0.00    -0.360 OA
ATOM     15  H7  <0> d          -0.858   0.153   2.731  0.00  0.00     0.217 HD
ENDBRANCH   6  14
BRANCH   4  16
ATOM     16  N1  <0> d           0.059  -4.171  -0.026  0.00  0.00    -0.399 N 
ATOM     17  H8  <0> d           0.062  -4.649  -0.870  0.00  0.00     0.156 HD
ATOM     18  H9  <0> d           0.070  -4.663   0.810  0.00  0.00     0.156 HD
ENDBRANCH   4  16
TORSDOF 3
