REMARK  5 active torsions:
REMARK  status: ('A' for Active; 'I' for Inactive)
REMARK    1  A    between atoms: C1_1  and  C2_2 
REMARK    2  A    between atoms: C2_2  and  C3_3 
REMARK    3  A    between atoms: C5_7  and  C9_11 
REMARK    4  A    between atoms: C6_8  and  C7_9 
REMARK    5  A    between atoms: C7_9  and  C8_10 
ROOT
ATOM      1  C3  <0> d          -3.272   1.697   0.729  0.00  0.00    -0.035 A 
ATOM      2  C4  <0> d          -4.335   0.897   0.948  0.00  0.00    -0.016 A 
ATOM      3  N1  <0> d          -3.905  -0.208   1.620  0.00  0.00    -0.368 N 
ATOM      4  H1  <0> d          -4.622  -0.993   1.903  0.00  0.00     0.165 HD
ATOM      5  C5  <0> d          -2.561  -0.104   1.819  0.00  0.00     0.011 A 
ATOM      6  C6  <0> d          -2.143   1.058   1.278  0.00  0.00    -0.029 A 
ATOM      7  H7  <0> d          -5.352   1.100   0.647  0.00  0.00     0.112 H 
ENDROOT
BRANCH   1   8
ATOM      8  C2  <0> d          -3.288   3.029   0.024  0.00  0.00    -0.043 C 
ATOM      9  H5  <0> d          -2.551   3.700   0.490  0.00  0.00     0.039 H 
ATOM     10  H6  <0> d          -4.290   3.474   0.104  0.00  0.00     0.039 H 
BRANCH   8  11
ATOM     11  C1  <0> d          -2.934   2.830  -1.451  0.00  0.00    -0.073 C 
ATOM     12  H2  <0> d          -2.946   3.802  -1.966  0.00  0.00     0.028 H 
ATOM     13  H3  <0> d          -3.671   2.159  -1.918  0.00  0.00     0.028 H 
ATOM     14  H4  <0> d          -1.931   2.385  -1.531  0.00  0.00     0.028 H 
ENDBRANCH   8  11
ENDBRANCH   1   8
BRANCH   6  15
ATOM     15  C7  <0> d          -0.729   1.579   1.267  0.00  0.00    -0.042 C 
ATOM     16  H8  <0> d          -0.744   2.679   1.273  0.00  0.00     0.039 H 
ATOM     17  H9  <0> d          -0.197   1.215   2.158  0.00  0.00     0.039 H 
BRANCH  15  18
ATOM     18  C8  <0> d          -0.013   1.086   0.008  0.00  0.00    -0.073 C 
ATOM     19  H10 <0> d           1.019   1.466   0.000  0.00  0.00     0.028 H 
ATOM     20  H11 <0> d          -0.545   1.450  -0.883  0.00  0.00     0.028 H 
ATOM     21  H12 <0> d           0.002  -0.014   0.002  0.00  0.00     0.028 H 
ENDBRANCH  15  18
ENDBRANCH   6  15
BRANCH   5  22
ATOM     22  C9  <0> d          -1.691  -1.114   2.523  0.00  0.00    -0.037 C 
ATOM     23  H13 <0> d          -0.650  -0.759   2.531  0.00  0.00     0.035 H 
ATOM     24  H14 <0> d          -1.746  -2.077   1.994  0.00  0.00     0.035 H 
ATOM     25  H15 <0> d          -2.043  -1.243   3.557  0.00  0.00     0.035 H 
ENDBRANCH   5  22
TORSDOF 5
