REMARK  3 active torsions:
REMARK  status: ('A' for Active; 'I' for Inactive)
REMARK    1  A    between atoms: C5_6  and  O2_7 
REMARK    2  A    between atoms: O2_7  and  C6_8 
REMARK    3  A    between atoms: C6_8  and  C7_9 
ROOT
ATOM      1  C1  <0> d          -0.019   1.528   0.010  0.00  0.00    -0.021 C 
ATOM      2  C2  <0> d           1.420   2.050  -0.001  0.00  0.00     0.022 C 
ATOM      3  O1  <0> d           2.102   1.539  -1.148  0.00  0.00    -0.391 OA
ATOM      4  C3  <0> d           2.194   0.114  -1.186  0.00  0.00     0.022 C 
ATOM      5  C4  <0> d           0.786  -0.486  -1.222  0.00  0.00    -0.021 C 
ATOM      6  C5  <0> d           0.002  -0.004   0.002  0.00  0.00     0.043 C 
ATOM      7  H1  <0> d          -0.527   1.880   0.908  0.00  0.00     0.040 H 
ATOM      8  H2  <0> d          -0.544   1.890  -0.873  0.00  0.00     0.040 H 
ATOM      9  H3  <0> d           1.411   3.139  -0.038  0.00  0.00     0.074 H 
ATOM     10  H4  <0> d           1.933   1.721   0.903  0.00  0.00     0.074 H 
ATOM     11  H5  <0> d           2.743  -0.192  -2.077  0.00  0.00     0.074 H 
ATOM     12  H6  <0> d           2.717  -0.241  -0.297  0.00  0.00     0.074 H 
ATOM     13  H7  <0> d           0.277  -0.165  -2.131  0.00  0.00     0.040 H 
ATOM     14  H8  <0> d           0.853  -1.574  -1.206  0.00  0.00     0.040 H 
ATOM     15  H9  <0> d           0.484  -0.367   0.910  0.00  0.00     0.083 H 
ENDROOT
BRANCH   6  16
ATOM     16  O2  <0> d          -1.337  -0.500  -0.062  0.00  0.00    -0.375 OA
BRANCH  16  17
ATOM     17  C6  <0> d          -1.518  -1.766   0.576  0.00  0.00     0.100 C 
ATOM     18  H10 <0> d          -0.878  -2.508   0.099  0.00  0.00     0.091 H 
ATOM     19  H11 <0> d          -1.256  -1.683   1.630  0.00  0.00     0.091 H 
BRANCH  17  20
ATOM     20  C7  <0> d          -2.959  -2.190   0.448  0.00  0.00     0.197 C 
ATOM     21  O3  <0> d          -3.756  -1.475  -0.135  0.00  0.00    -0.646 OA
ATOM     22  O4  <0> d          -3.327  -3.249   0.927  0.00  0.00    -0.646 OA
ENDBRANCH  17  20
ENDBRANCH  16  17
ENDBRANCH   6  16
TORSDOF 3
