REMARK  6 active torsions:
REMARK  status: ('A' for Active; 'I' for Inactive)
REMARK    1  A    between atoms: C1_1  and  O1_2 
REMARK    2  A    between atoms: O1_2  and  C2_3 
REMARK    3  A    between atoms: C2_3  and  C3_4 
REMARK    4  A    between atoms: C2_3  and  O2_9 
REMARK    5  A    between atoms: C4_5  and  C5_6 
REMARK    6  A    between atoms: O2_9  and  C8_10 
ROOT
ATOM      1  C2  <0> d          -0.273  -2.661   0.346  0.00  0.00     0.190 C 
ATOM      2  H4  <0> d          -1.173  -3.233   0.616  0.00  0.00     0.151 H 
ENDROOT
BRANCH   1   3
ATOM      3  O1  <0> d           0.023  -2.896  -1.032  0.00  0.00    -0.355 OA
BRANCH   3   4
ATOM      4  C1  <0> d          -0.323  -4.205  -1.486  0.00  0.00     0.008 C 
ATOM      5  H1  <0> d          -0.065  -4.305  -2.550  0.00  0.00     0.066 H 
ATOM      6  H2  <0> d          -1.403  -4.365  -1.354  0.00  0.00     0.066 H 
ATOM      7  H3  <0> d           0.232  -4.955  -0.902  0.00  0.00     0.066 H 
ENDBRANCH   3   4
ENDBRANCH   1   3
BRANCH   1   8
ATOM      8  C3  <0> d          -0.477  -1.220   0.566  0.00  0.00    -0.046 C 
ATOM      9  C4  <0> d          -0.640  -0.070   0.741  0.00  0.00    -0.097 C 
BRANCH   9  10
ATOM     10  C5  <0> d          -0.844   1.371   0.960  0.00  0.00     0.006 A 
ATOM     11  C7  <0> d          -2.244   1.933   0.708  0.00  0.00    -0.051 A 
ATOM     12  C6  <0> d          -1.724   1.788   2.140  0.00  0.00    -0.051 A 
ATOM     13  H8  <0> d          -2.169   2.844   0.096  0.00  0.00     0.035 H 
ATOM     14  H9  <0> d          -2.849   1.183   0.176  0.00  0.00     0.035 H 
ATOM     15  H6  <0> d          -1.899   0.920   2.792  0.00  0.00     0.035 H 
ATOM     16  H7  <0> d          -1.219   2.580   2.712  0.00  0.00     0.035 H 
ATOM     17  H5  <0> d           0.175   1.598   0.613  0.00  0.00     0.059 H 
ENDBRANCH   9  10
ENDBRANCH   1   8
BRANCH   1  18
ATOM     18  O2  <0> d           0.816  -3.116   1.152  0.00  0.00    -0.355 OA
BRANCH  18  19
ATOM     19  C8  <0> d           0.905  -4.538   1.260  0.00  0.00     0.008 C 
ATOM     20  H10 <0> d           1.764  -4.804   1.893  0.00  0.00     0.066 H 
ATOM     21  H11 <0> d           1.037  -4.974   0.259  0.00  0.00     0.066 H 
ATOM     22  H12 <0> d          -0.018  -4.929   1.712  0.00  0.00     0.066 H 
ENDBRANCH  18  19
ENDBRANCH   1  18
TORSDOF 6
