REMARK  5 active torsions:
REMARK  status: ('A' for Active; 'I' for Inactive)
REMARK    1  A    between atoms: C1_1  and  C2_2 
REMARK    2  A    between atoms: C2_2  and  S1_3 
REMARK    3  A    between atoms: S1_3  and  C3_4 
REMARK    4  A    between atoms: C4_7  and  C5_10 
REMARK    5  A    between atoms: N3_8  and  N4_9 
ROOT
ATOM      1  C3  <0> d           1.321  -0.356  -0.013  0.00  0.00     0.206 A 
ATOM      2  N1  <0> d           2.016   0.758  -0.013  0.00  0.00    -0.121 NA
ATOM      3  N2  <0> d           1.222   1.768  -0.000  0.00  0.00    -0.133 NA
ATOM      4  C4  <0> d          -0.017   1.363   0.009  0.00  0.00     0.141 A 
ATOM      5  N3  <0> d           0.002  -0.004   0.002  0.00  0.00    -0.240 N 
ENDROOT
BRANCH   1   6
ATOM      6  S1  <0> d           1.968  -1.995  -0.027  0.00  0.00    -0.089 SA
BRANCH   6   7
ATOM      7  C2  <0> d           3.742  -1.632  -0.042  0.00  0.00    -0.019 C 
ATOM      8  H4  <0> d           3.986  -1.051  -0.932  0.00  0.00     0.049 H 
ATOM      9  H5  <0> d           4.003  -1.061   0.848  0.00  0.00     0.049 H 
BRANCH   7  10
ATOM     10  C1  <0> d           4.530  -2.943  -0.057  0.00  0.00    -0.068 C 
ATOM     11  H1  <0> d           5.598  -2.725  -0.066  0.00  0.00     0.028 H 
ATOM     12  H2  <0> d           4.285  -3.525   0.832  0.00  0.00     0.028 H 
ATOM     13  H3  <0> d           4.268  -3.515  -0.948  0.00  0.00     0.028 H 
ENDBRANCH   7  10
ENDBRANCH   6   7
ENDBRANCH   1   6
BRANCH   5  14
ATOM     14  N4  <0> d          -1.075  -0.844   0.008  0.00  0.00    -0.239 NA
ATOM     15  H6  <0> d          -1.370  -1.061  -0.932  0.00  0.00     0.143 HD
ATOM     16  H7  <0> d          -0.875  -1.685   0.528  0.00  0.00     0.143 HD
ENDBRANCH   5  14
BRANCH   4  17
ATOM     17  C5  <0> d          -1.242   2.240   0.020  0.00  0.00    -0.018 C 
ATOM     18  H8  <0> d          -1.533   2.446   1.051  0.00  0.00     0.038 H 
ATOM     19  H9  <0> d          -1.023   3.178  -0.489  0.00  0.00     0.038 H 
ATOM     20  H10 <0> d          -2.058   1.730  -0.492  0.00  0.00     0.038 H 
ENDBRANCH   4  17
TORSDOF 5
