REMARK  1 active torsions:
REMARK  status: ('A' for Active; 'I' for Inactive)
REMARK    1  A    between atoms: C2_2  and  C3_3 
ROOT
ATOM      1  C1  <0> d           0.018  -1.178  -0.004  0.00  0.00    -0.151 C 
ATOM      2  C2  <0> d           0.002  -0.004   0.002  0.00  0.00    -0.085 C 
ATOM      3  H2  <0> d           0.032  -2.228  -0.010  0.00  0.00     0.166 H 
ENDROOT
BRANCH   2   4
ATOM      4  C3  <0> d          -0.018   1.468   0.010  0.00  0.00     0.096 C 
ATOM      5  H1  <0> d           1.005   1.845   0.002  0.00  0.00     0.103 H 
ATOM      6  O1  <0> d          -0.687   1.929   1.185  0.00  0.00    -0.374 OA
ATOM      7  C7  <0> d          -0.741   3.352   1.306  0.00  0.00     0.021 C 
ATOM      8  C6  <0> d          -1.511   3.935   0.118  0.00  0.00    -0.045 C 
ATOM      9  H9  <0> d           0.272   3.754   1.315  0.00  0.00     0.074 H 
ATOM     10  H10 <0> d          -1.247   3.619   2.234  0.00  0.00     0.074 H 
ATOM     11  C5  <0> d          -0.828   3.505  -1.183  0.00  0.00    -0.060 C 
ATOM     12  H7  <0> d          -1.515   5.023   0.185  0.00  0.00     0.036 H 
ATOM     13  H8  <0> d          -2.536   3.564   0.132  0.00  0.00     0.036 H 
ATOM     14  C4  <0> d          -0.759   1.975  -1.230  0.00  0.00    -0.031 C 
ATOM     15  H5  <0> d           0.181   3.916  -1.220  0.00  0.00     0.033 H 
ATOM     16  H6  <0> d          -1.403   3.870  -2.035  0.00  0.00     0.033 H 
ATOM     17  H3  <0> d          -0.225   1.662  -2.127  0.00  0.00     0.038 H 
ATOM     18  H4  <0> d          -1.769   1.565  -1.244  0.00  0.00     0.038 H 
ENDBRANCH   2   4
TORSDOF 1
