REMARK  1 active torsions:
REMARK  status: ('A' for Active; 'I' for Inactive)
REMARK    1  A    between atoms: C1_1  and  C2_2 
ROOT
ATOM      1  C2  <0> d          -2.891   4.067   0.036  0.00  0.00     0.034 A 
ATOM      2  C3  <0> d          -3.437   2.796   0.031  0.00  0.00    -0.038 A 
ATOM      3  C4  <0> d          -2.585   1.688   0.022  0.00  0.00     0.060 A 
ATOM      4  C5  <0> d          -1.197   1.929   0.018  0.00  0.00     0.032 A 
ATOM      5  C6  <0> d          -0.013   1.076   0.008  0.00  0.00    -0.053 A 
ATOM      6  C7  <0> d           1.057   1.891   0.002  0.00  0.00    -0.020 A 
ATOM      7  N1  <0> d           0.647   3.196   0.013  0.00  0.00    -0.350 N 
ATOM      8  H1  <0> d           1.238   3.965   0.011  0.00  0.00     0.166 HD
ATOM      9  C8  <0> d          -0.727   3.257   0.026  0.00  0.00     0.139 A 
ATOM     10  N2  <0> d          -1.590   4.263   0.040  0.00  0.00    -0.235 NA
ATOM     11  C9  <0> d          -3.105   0.354   0.017  0.00  0.00     0.100 C 
ATOM     12  N3  <0> d          -3.518  -0.705   0.013  0.00  0.00    -0.191 NA
ATOM     13  H5  <0> d          -4.509   2.661   0.035  0.00  0.00     0.088 H 
ATOM     14  H6  <0> d           0.002  -0.004   0.002  0.00  0.00     0.087 H 
ATOM     15  H7  <0> d           2.086   1.565  -0.010  0.00  0.00     0.111 H 
ENDROOT
BRANCH   1  16
ATOM     16  C1  <0> d          -3.812   5.260   0.046  0.00  0.00    -0.035 C 
ATOM     17  H2  <0> d          -4.030   5.542   1.077  0.00  0.00     0.035 H 
ATOM     18  H3  <0> d          -3.332   6.094  -0.465  0.00  0.00     0.035 H 
ATOM     19  H4  <0> d          -4.741   5.007  -0.465  0.00  0.00     0.035 H 
ENDBRANCH   1  16
TORSDOF 1
