REMARK  2 active torsions:
REMARK  status: ('A' for Active; 'I' for Inactive)
REMARK    1  A    between atoms: C2_2  and  C3_3 
REMARK    2  A    between atoms: C3_3  and  N1_4 
ROOT
ATOM      1  N1  <0> d          -0.704   1.975   1.216  0.00  0.00    -0.349 N 
ATOM      2  C4  <0> d          -2.146   2.237   1.299  0.00  0.00    -0.002 C 
ATOM      3  C5  <0> d          -2.468   2.277   2.812  0.00  0.00    -0.042 C 
ATOM      4  C6  <0> d          -1.105   2.690   3.412  0.00  0.00     0.011 C 
ATOM      5  C7  <0> d          -0.093   2.230   2.385  0.00  0.00     0.220 C 
ATOM      6  O1  <0> d           1.097   2.110   2.588  0.00  0.00    -0.273 OA
ATOM      7  H6  <0> d          -2.383   3.194   0.835  0.00  0.00     0.064 H 
ATOM      8  H7  <0> d          -2.703   1.434   0.817  0.00  0.00     0.064 H 
ATOM      9  H8  <0> d          -2.773   1.296   3.175  0.00  0.00     0.036 H 
ATOM     10  H9  <0> d          -3.232   3.025   3.026  0.00  0.00     0.036 H 
ATOM     11  H10 <0> d          -0.938   2.186   4.364  0.00  0.00     0.047 H 
ATOM     12  H11 <0> d          -1.054   3.771   3.540  0.00  0.00     0.047 H 
ENDROOT
BRANCH   1  13
ATOM     13  C3  <0> d          -0.018   1.503   0.010  0.00  0.00     0.012 C 
ATOM     14  H4  <0> d           1.004   1.880   0.003  0.00  0.00     0.070 H 
ATOM     15  H5  <0> d          -0.545   1.864  -0.873  0.00  0.00     0.070 H 
BRANCH  13  16
ATOM     16  C2  <0> d           0.002  -0.004   0.002  0.00  0.00    -0.095 C 
ATOM     17  C1  <0> d          -0.478  -0.660  -1.025  0.00  0.00    -0.123 C 
ATOM     18  H1  <0> d          -0.464  -1.740  -1.031  0.00  0.00     0.066 H 
ATOM     19  H2  <0> d          -0.889  -0.121  -1.866  0.00  0.00     0.066 H 
ATOM     20  H3  <0> d           0.413  -0.543   0.843  0.00  0.00     0.078 H 
ENDBRANCH  13  16
ENDBRANCH   1  13
TORSDOF 2
