REMARK  2 active torsions:
REMARK  status: ('A' for Active; 'I' for Inactive)
REMARK    1  A    between atoms: C1_1  and  O1_2 
REMARK    2  A    between atoms: O1_2  and  C2_3 
ROOT
ATOM      1  C2  <0> d          -1.972   1.164   1.348  0.00  0.00     0.082 A 
ATOM      2  C3  <0> d          -2.588   0.366   0.397  0.00  0.00    -0.050 A 
ATOM      3  C4  <0> d          -3.900  -0.028   0.568  0.00  0.00    -0.080 A 
ATOM      4  C5  <0> d          -4.615   0.378   1.683  0.00  0.00    -0.075 A 
ATOM      5  C6  <0> d          -4.022   1.178   2.639  0.00  0.00    -0.034 A 
ATOM      6  C7  <0> d          -2.694   1.580   2.482  0.00  0.00     0.050 A 
ATOM      7  C8  <0> d          -2.717   2.332   3.740  0.00  0.00     0.167 A 
ATOM      8  O2  <0> d          -1.918   3.004   4.357  0.00  0.00    -0.292 OA
ATOM      9  C9  <0> d          -4.147   1.921   3.943  0.00  0.00     0.020 A 
ATOM     10  H4  <0> d          -2.039   0.048  -0.478  0.00  0.00     0.087 H 
ATOM     11  H5  <0> d          -4.373  -0.653  -0.174  0.00  0.00     0.083 H 
ATOM     12  H6  <0> d          -5.643   0.068   1.804  0.00  0.00     0.084 H 
ATOM     13  H7  <0> d          -4.900   2.576   3.883  0.00  0.00     0.052 H 
ATOM     14  H8  <0> d          -4.299   1.271   4.805  0.00  0.00     0.052 H 
ENDROOT
BRANCH   1  15
ATOM     15  O1  <0> d          -0.682   1.547   1.184  0.00  0.00    -0.355 OA
BRANCH  15  16
ATOM     16  C1  <0> d          -0.013   1.086   0.008  0.00  0.00     0.010 C 
ATOM     17  H1  <0> d           0.002  -0.004   0.002  0.00  0.00     0.066 H 
ATOM     18  H2  <0> d           1.010   1.463   0.000  0.00  0.00     0.066 H 
ATOM     19  H3  <0> d          -0.540   1.447  -0.875  0.00  0.00     0.066 H 
ENDBRANCH  15  16
ENDBRANCH   1  15
TORSDOF 2
