REMARK  1 active torsions:
REMARK  status: ('A' for Active; 'I' for Inactive)
REMARK    1  A    between atoms: C2_2  and  O1_8 
ROOT
ATOM      1  C1  <0> d           1.171   2.065   0.002  0.00  0.00    -0.011 A 
ATOM      2  C2  <0> d           1.102   3.455   0.010  0.00  0.00     0.086 A 
ATOM      3  C3  <0> d          -0.142   4.068   0.024  0.00  0.00     0.034 A 
ATOM      4  N1  <0> d          -1.248   3.350   0.031  0.00  0.00    -0.267 NA
ATOM      5  C4  <0> d          -1.220   2.032   0.019  0.00  0.00     0.039 A 
ATOM      6  C5  <0> d          -0.016   1.347   0.009  0.00  0.00     0.136 A 
ATOM      7  F1  <0> d           0.002  -0.004   0.002  0.00  0.00    -0.204 F 
ATOM      8  H1  <0> d           2.124   1.559  -0.009  0.00  0.00     0.092 H 
ATOM      9  H2  <0> d          -0.206   5.146   0.030  0.00  0.00     0.119 H 
ATOM     10  H3  <0> d          -2.148   1.479   0.021  0.00  0.00     0.119 H 
ENDROOT
BRANCH   2  11
ATOM     11  O1  <0> d           2.238   4.201   0.002  0.00  0.00    -0.359 OA
ATOM     12  H4  <0> d           2.558   4.421  -0.883  0.00  0.00     0.217 HD
ENDBRANCH   2  11
TORSDOF 1
