REMARK  4 active torsions:
REMARK  status: ('A' for Active; 'I' for Inactive)
REMARK    1  A    between atoms: C1_1  and  C2_2 
REMARK    2  A    between atoms: C2_2  and  C3_3 
REMARK    3  A    between atoms: C2_2  and  C4_4 
REMARK    4  A    between atoms: C2_2  and  O1_9 
ROOT
ATOM      1  C2  <0> d           0.002  -0.004   0.002  0.00  0.00     0.085 C 
ENDROOT
BRANCH   1   2
ATOM      2  C1  <0> d          -0.019   1.526   0.010  0.00  0.00    -0.044 C 
ATOM      3  H1  <0> d           1.004   1.903   0.003  0.00  0.00     0.032 H 
ATOM      4  H2  <0> d          -0.546   1.887  -0.873  0.00  0.00     0.032 H 
ATOM      5  H3  <0> d          -0.529   1.877   0.907  0.00  0.00     0.032 H 
ENDBRANCH   1   2
BRANCH   1   6
ATOM      6  C3  <0> d           0.742  -0.511   1.242  0.00  0.00    -0.044 C 
ATOM      7  H4  <0> d           0.232  -0.159   2.138  0.00  0.00     0.032 H 
ATOM      8  H5  <0> d           0.757  -1.601   1.236  0.00  0.00     0.032 H 
ATOM      9  H6  <0> d           1.765  -0.134   1.234  0.00  0.00     0.032 H 
ENDBRANCH   1   6
BRANCH   1  10
ATOM     10  C4  <0> d          -1.412  -0.526   0.013  0.00  0.00     0.036 A 
ATOM     11  S1  <0> d          -2.779   0.176   0.687  0.00  0.00     0.009 SA
ATOM     12  N1  <0> d          -3.923  -0.978   0.289  0.00  0.00    -0.224 NA
ATOM     13  C6  <0> d          -3.243  -1.896  -0.351  0.00  0.00     0.011 A 
ATOM     14  C5  <0> d          -1.890  -1.681  -0.516  0.00  0.00    -0.048 A 
ATOM     15  H8  <0> d          -3.722  -2.785  -0.735  0.00  0.00     0.115 H 
ATOM     16  H7  <0> d          -1.254  -2.386  -1.031  0.00  0.00     0.087 H 
ENDBRANCH   1  10
BRANCH   1  17
ATOM     17  O1  <0> d           0.671  -0.465  -1.174  0.00  0.00    -0.385 OA
ATOM     18  H9  <0> d           1.588  -0.167  -1.247  0.00  0.00     0.211 HD
ENDBRANCH   1  17
TORSDOF 4
