REMARK  2 active torsions:
REMARK  status: ('A' for Active; 'I' for Inactive)
REMARK    1  A    between atoms: C1_1  and  C2_2 
REMARK    2  A    between atoms: N4_9  and  C5_11 
ROOT
ATOM      1  C2  <0> d          -2.329   2.220   2.542  0.00  0.00     0.086 A 
ATOM      2  C3  <0> d          -1.119   2.247   3.275  0.00  0.00     0.163 A 
ATOM      3  C4  <0> d          -0.113   1.826   2.412  0.00  0.00     0.203 A 
ATOM      4  N1  <0> d           1.048   1.856   3.130  0.00  0.00    -0.107 NA
ATOM      5  N2  <0> d           0.712   2.298   4.418  0.00  0.00    -0.034 NA
ATOM      6  N3  <0> d          -0.555   2.517   4.470  0.00  0.00    -0.080 N 
ATOM      7  O1  <0> d          -1.254   2.974   5.613  0.00  0.00    -0.060 OA
ATOM      8  N4  <0> d          -0.698   1.558   1.213  0.00  0.00    -0.253 N 
ATOM      9  N5  <0> d          -2.069   1.819   1.330  0.00  0.00    -0.174 NA
ENDROOT
BRANCH   1  10
ATOM     10  C1  <0> d          -3.688   2.599   3.071  0.00  0.00    -0.032 C 
ATOM     11  H1  <0> d          -3.600   2.897   4.126  0.00  0.00     0.035 H 
ATOM     12  H2  <0> d          -4.366   1.737   2.990  0.00  0.00     0.035 H 
ATOM     13  H3  <0> d          -4.090   3.438   2.485  0.00  0.00     0.035 H 
ENDBRANCH   1  10
BRANCH   8  14
ATOM     14  C5  <0> d          -0.013   1.086   0.008  0.00  0.00     0.004 C 
ATOM     15  H4  <0> d          -0.744   0.958  -0.804  0.00  0.00     0.059 H 
ATOM     16  H5  <0> d           0.475   0.122   0.217  0.00  0.00     0.059 H 
ATOM     17  H6  <0> d           0.746   1.822  -0.295  0.00  0.00     0.059 H 
ENDBRANCH   8  14
TORSDOF 2
