REMARK  0 active torsions:
REMARK  status: ('A' for Active; 'I' for Inactive)
ROOT
ATOM      1  C1  <0> d          -2.397  -0.040   0.014  0.00  0.00    -0.082 A 
ATOM      2  C2  <0> d          -2.416   1.342   0.025  0.00  0.00    -0.082 A 
ATOM      3  C3  <0> d          -1.229   2.047   0.019  0.00  0.00    -0.074 A 
ATOM      4  C4  <0> d          -0.017   1.375   0.010  0.00  0.00    -0.028 A 
ATOM      5  C5  <0> d           0.002  -0.004   0.002  0.00  0.00    -0.048 A 
ATOM      6  C6  <0> d          -1.190  -0.711   0.003  0.00  0.00    -0.076 A 
ATOM      7  C7  <0> d           1.300  -0.771  -0.006  0.00  0.00    -0.021 C 
ATOM      8  C8  <0> d           2.444   0.154  -0.425  0.00  0.00     0.024 C 
ATOM      9  O1  <0> d           2.366   1.353   0.353  0.00  0.00    -0.386 OA
ATOM     10  C9  <0> d           1.257   2.180   0.002  0.00  0.00     0.044 C 
ATOM     11  H1  <0> d          -3.324  -0.595   0.014  0.00  0.00     0.083 H 
ATOM     12  H2  <0> d          -3.358   1.870   0.035  0.00  0.00     0.083 H 
ATOM     13  H3  <0> d          -1.245   3.127   0.028  0.00  0.00     0.084 H 
ATOM     14  H4  <0> d          -1.175  -1.791  -0.006  0.00  0.00     0.084 H 
ATOM     15  H5  <0> d           1.497  -1.161   0.993  0.00  0.00     0.043 H 
ATOM     16  H6  <0> d           1.227  -1.599  -0.711  0.00  0.00     0.043 H 
ATOM     17  H7  <0> d           3.399  -0.339  -0.244  0.00  0.00     0.074 H 
ATOM     18  H8  <0> d           2.351   0.394  -1.484  0.00  0.00     0.074 H 
ATOM     19  H9  <0> d           1.416   2.593  -0.994  0.00  0.00     0.081 H 
ATOM     20  H10 <0> d           1.173   2.996   0.720  0.00  0.00     0.081 H 
ENDROOT
TORSDOF 0
