REMARK  4 active torsions:
REMARK  status: ('A' for Active; 'I' for Inactive)
REMARK    1  A    between atoms: C1_1  and  C2_2 
REMARK    2  A    between atoms: C2_2  and  C3_3 
REMARK    3  A    between atoms: C2_2  and  C4_4 
REMARK    4  A    between atoms: C2_2  and  O1_5 
ROOT
ATOM      1  C2  <0> d           1.278   2.215   0.002  0.00  0.00     0.071 C 
ENDROOT
BRANCH   1   2
ATOM      2  C1  <0> d           2.031   1.780  -1.257  0.00  0.00    -0.047 C 
ATOM      3  H1  <0> d           2.133   0.685  -1.264  0.00  0.00     0.031 H 
ATOM      4  H2  <0> d           3.030   2.241  -1.264  0.00  0.00     0.031 H 
ATOM      5  H3  <0> d           1.472   2.102  -2.148  0.00  0.00     0.031 H 
ENDBRANCH   1   2
BRANCH   1   6
ATOM      6  C3  <0> d           1.136   3.738   0.011  0.00  0.00    -0.047 C 
ATOM      7  H4  <0> d           0.594   4.050   0.916  0.00  0.00     0.031 H 
ATOM      8  H5  <0> d           0.577   4.060  -0.880  0.00  0.00     0.031 H 
ATOM      9  H6  <0> d           2.135   4.199   0.004  0.00  0.00     0.031 H 
ENDBRANCH   1   6
BRANCH   1  10
ATOM     10  C4  <0> d           2.055   1.767   1.241  0.00  0.00    -0.047 C 
ATOM     11  H7  <0> d           1.513   2.079   2.146  0.00  0.00     0.031 H 
ATOM     12  H8  <0> d           3.053   2.228   1.234  0.00  0.00     0.031 H 
ATOM     13  H9  <0> d           2.156   0.672   1.234  0.00  0.00     0.031 H 
ENDBRANCH   1  10
BRANCH   1  14
ATOM     14  O1  <0> d          -0.020   1.616   0.011  0.00  0.00    -0.274 OA
ATOM     15 Cl1  <0> d           0.002  -0.004   0.002  0.00  0.00     0.062 Cl
ENDBRANCH   1  14
TORSDOF 4
