REMARK  1 active torsions:
REMARK  status: ('A' for Active; 'I' for Inactive)
REMARK    1  A    between atoms: C4_4  and  C7_7 
ROOT
ATOM      1  C1  <0> d           3.168   6.409   0.004  0.00  0.00    -0.083 A 
ATOM      2  C2  <0> d           3.730   5.145  -0.007  0.00  0.00    -0.082 A 
ATOM      3  C3  <0> d           2.921   4.027  -0.005  0.00  0.00    -0.071 A 
ATOM      4  C4  <0> d           1.536   4.173   0.009  0.00  0.00    -0.004 A 
ATOM      5  C5  <0> d           0.975   5.448   0.015  0.00  0.00    -0.071 A 
ATOM      6  C6  <0> d           1.794   6.559   0.018  0.00  0.00    -0.082 A 
ATOM      7  H2  <0> d           3.805   7.281   0.002  0.00  0.00     0.083 H 
ATOM      8  H3  <0> d           4.804   5.033  -0.018  0.00  0.00     0.083 H 
ATOM      9  H4  <0> d           3.361   3.041  -0.014  0.00  0.00     0.084 H 
ATOM     10  H5  <0> d          -0.099   5.567   0.022  0.00  0.00     0.084 H 
ATOM     11  H6  <0> d           1.360   7.548   0.027  0.00  0.00     0.083 H 
ENDROOT
BRANCH   4  12
ATOM     12  C7  <0> d           0.660   2.974   0.011  0.00  0.00     0.107 A 
ATOM     13  N3  <0> d           1.039   1.708   0.001  0.00  0.00    -0.155 NA
ATOM     14  N2  <0> d          -0.011   0.966   0.007  0.00  0.00    -0.197 N 
ATOM     15  N1  <0> d          -1.080   1.679   0.016  0.00  0.00    -0.167 NA
ATOM     16  H1  <0> d           0.003  -0.034   0.006  0.00  0.00     0.212 HD
ATOM     17  C8  <0> d          -0.747   2.948   0.024  0.00  0.00     0.053 A 
ATOM     18  H7  <0> d          -1.414   3.797   0.035  0.00  0.00     0.121 H 
ENDBRANCH   4  12
TORSDOF 1
