REMARK  1 active torsions:
REMARK  status: ('A' for Active; 'I' for Inactive)
REMARK    1  A    between atoms: C3_3  and  N2_11 
ROOT
ATOM      1  C1  <0> d          -2.395  -0.027   0.024  0.00  0.00    -0.079 A 
ATOM      2  C2  <0> d          -2.425   1.363   0.032  0.00  0.00    -0.057 A 
ATOM      3  C3  <0> d          -1.254   2.092   0.031  0.00  0.00     0.038 A 
ATOM      4  C4  <0> d          -0.017   1.412   0.010  0.00  0.00     0.019 A 
ATOM      5  C5  <0> d           1.201   2.112   0.002  0.00  0.00    -0.067 A 
ATOM      6  C6  <0> d           2.361   1.388  -0.012  0.00  0.00    -0.065 A 
ATOM      7  C7  <0> d           2.311  -0.003  -0.019  0.00  0.00     0.003 A 
ATOM      8  N1  <0> d           1.172  -0.653  -0.012  0.00  0.00    -0.260 NA
ATOM      9  C8  <0> d           0.002  -0.004   0.002  0.00  0.00     0.069 A 
ATOM     10  C9  <0> d          -1.215  -0.707   0.010  0.00  0.00    -0.054 A 
ATOM     11  H1  <0> d          -3.324  -0.578   0.030  0.00  0.00     0.083 H 
ATOM     12  H2  <0> d          -3.375   1.878   0.043  0.00  0.00     0.086 H 
ATOM     13  H3  <0> d           1.221   3.192   0.008  0.00  0.00     0.085 H 
ATOM     14  H4  <0> d           3.315   1.895  -0.018  0.00  0.00     0.085 H 
ATOM     15  H5  <0> d           3.235  -0.563  -0.030  0.00  0.00     0.114 H 
ATOM     16  H6  <0> d          -1.214  -1.787   0.004  0.00  0.00     0.087 H 
ENDROOT
BRANCH   3  17
ATOM     17  N2  <0> d          -1.291   3.483   0.039  0.00  0.00    -0.398 N 
ATOM     18  H7  <0> d          -0.464   3.991   0.031  0.00  0.00     0.156 HD
ATOM     19  H8  <0> d          -2.144   3.945   0.054  0.00  0.00     0.156 HD
ENDBRANCH   3  17
TORSDOF 1
