REMARK  6 active torsions:
REMARK  status: ('A' for Active; 'I' for Inactive)
REMARK    1  A    between atoms: C1_1  and  C2_2 
REMARK    2  A    between atoms: C2_2  and  C3_3 
REMARK    3  A    between atoms: C3_3  and  C4_5 
REMARK    4  A    between atoms: C3_3  and  O1_6 
REMARK    5  A    between atoms: O1_6  and  C5_7 
REMARK    6  A    between atoms: C5_7  and  C6_8 
ROOT
ATOM      1  C3  <0> d          -1.433  -0.534   0.013  0.00  0.00     0.035 C 
ATOM      2  H1  <0> d          -1.986  -0.102  -0.821  0.00  0.00     0.082 H 
ENDROOT
BRANCH   1   3
ATOM      3  C2  <0> d           0.002  -0.004   0.002  0.00  0.00    -0.044 C 
ATOM      4  H5  <0> d           0.512  -0.356  -0.895  0.00  0.00     0.036 H 
ATOM      5  H6  <0> d           0.529  -0.365   0.885  0.00  0.00     0.036 H 
BRANCH   3   6
ATOM      6  C1  <0> d          -0.019   1.526   0.010  0.00  0.00    -0.074 C 
ATOM      7  H2  <0> d           1.004   1.903   0.003  0.00  0.00     0.027 H 
ATOM      8  H3  <0> d          -0.546   1.887  -0.873  0.00  0.00     0.027 H 
ATOM      9  H4  <0> d          -0.529   1.877   0.907  0.00  0.00     0.027 H 
ENDBRANCH   3   6
ENDBRANCH   1   3
BRANCH   1  10
ATOM     10  C4  <0> d          -1.416  -2.058  -0.121  0.00  0.00    -0.052 C 
ATOM     11  H7  <0> d          -0.933  -2.334  -1.059  0.00  0.00     0.030 H 
ATOM     12  H8  <0> d          -0.863  -2.489   0.713  0.00  0.00     0.030 H 
ATOM     13  H9  <0> d          -2.438  -2.435  -0.114  0.00  0.00     0.030 H 
ENDBRANCH   1  10
BRANCH   1  14
ATOM     14  O1  <0> d          -2.066  -0.171   1.242  0.00  0.00    -0.376 OA
BRANCH  14  15
ATOM     15  C5  <0> d          -3.478   0.017   1.136  0.00  0.00     0.100 C 
ATOM     16  H10 <0> d          -3.686   0.812   0.420  0.00  0.00     0.091 H 
ATOM     17  H11 <0> d          -3.943  -0.909   0.796  0.00  0.00     0.091 H 
BRANCH  15  18
ATOM     18  C6  <0> d          -4.038   0.394   2.483  0.00  0.00     0.197 C 
ATOM     19  O2  <0> d          -3.295   0.494   3.445  0.00  0.00    -0.646 OA
ATOM     20  O3  <0> d          -5.232   0.601   2.611  0.00  0.00    -0.646 OA
ENDBRANCH  15  18
ENDBRANCH  14  15
ENDBRANCH   1  14
TORSDOF 6
