REMARK  1 active torsions:
REMARK  status: ('A' for Active; 'I' for Inactive)
REMARK    1  A    between atoms: C1_1  and  C2_2 
ROOT
ATOM      1  C2  <0> d          -1.113   3.405   0.031  0.00  0.00     0.145 A 
ATOM      2  N1  <0> d          -1.162   2.092   0.019  0.00  0.00    -0.230 NA
ATOM      3  C3  <0> d          -0.017   1.399   0.010  0.00  0.00     0.089 A 
ATOM      4  C4  <0> d           0.002  -0.004   0.002  0.00  0.00    -0.053 A 
ATOM      5  C5  <0> d           1.195  -0.660  -0.013  0.00  0.00    -0.081 A 
ATOM      6  C6  <0> d           2.400   0.041  -0.021  0.00  0.00    -0.081 A 
ATOM      7  C7  <0> d           2.421   1.402  -0.013  0.00  0.00    -0.051 A 
ATOM      8  C8  <0> d           1.210   2.114   0.002  0.00  0.00     0.107 A 
ATOM      9  N2  <0> d           1.177   3.450   0.009  0.00  0.00    -0.146 NA
ATOM     10  N3  <0> d           0.042   4.060   0.023  0.00  0.00    -0.135 NA
ATOM     11  H4  <0> d          -0.924  -0.560   0.007  0.00  0.00     0.087 H 
ATOM     12  H5  <0> d           1.208  -1.740  -0.019  0.00  0.00     0.083 H 
ATOM     13  H6  <0> d           3.332  -0.505  -0.033  0.00  0.00     0.083 H 
ATOM     14  H7  <0> d           3.362   1.931  -0.019  0.00  0.00     0.087 H 
ENDROOT
BRANCH   1  15
ATOM     15  C1  <0> d          -2.401   4.187   0.048  0.00  0.00    -0.018 C 
ATOM     16  H1  <0> d          -2.721   4.381  -0.976  0.00  0.00     0.038 H 
ATOM     17  H2  <0> d          -3.168   3.612   0.566  0.00  0.00     0.038 H 
ATOM     18  H3  <0> d          -2.244   5.134   0.565  0.00  0.00     0.038 H 
ENDBRANCH   1  15
TORSDOF 1
