REMARK  4 active torsions:
REMARK  status: ('A' for Active; 'I' for Inactive)
REMARK    1  A    between atoms: C1_1  and  C2_2 
REMARK    2  A    between atoms: C5_5  and  C8_10 
REMARK    3  A    between atoms: N1_6  and  C6_7 
REMARK    4  A    between atoms: C6_7  and  C7_8 
ROOT
ATOM      1  C2  <0> d          -2.040   2.227   1.323  0.00  0.00     0.008 A 
ATOM      2  C3  <0> d          -2.292   2.640   2.581  0.00  0.00    -0.060 A 
ATOM      3  C4  <0> d          -1.065   2.653   3.274  0.00  0.00    -0.060 A 
ATOM      4  C5  <0> d          -0.111   2.241   2.414  0.00  0.00     0.008 A 
ATOM      5  N1  <0> d          -0.704   1.975   1.216  0.00  0.00    -0.345 N 
ATOM      6  H4  <0> d          -3.256   2.915   2.983  0.00  0.00     0.086 H 
ATOM      7  H5  <0> d          -0.916   2.939   4.305  0.00  0.00     0.086 H 
ENDROOT
BRANCH   5   8
ATOM      8  C6  <0> d          -0.018   1.503   0.010  0.00  0.00     0.080 C 
ATOM      9  H6  <0> d           1.004   1.880   0.003  0.00  0.00     0.081 H 
ATOM     10  H7  <0> d          -0.545   1.864  -0.873  0.00  0.00     0.081 H 
BRANCH   8  11
ATOM     11  C7  <0> d           0.002  -0.004   0.002  0.00  0.00     0.191 C 
ATOM     12  O1  <0> d          -0.504  -0.620   0.910  0.00  0.00    -0.647 OA
ATOM     13  O2  <0> d           0.583  -0.662  -1.014  0.00  0.00    -0.647 OA
ENDBRANCH   8  11
ENDBRANCH   5   8
BRANCH   1  14
ATOM     14  C1  <0> d          -3.059   2.068   0.224  0.00  0.00    -0.037 C 
ATOM     15  H1  <0> d          -3.466   1.057   0.249  0.00  0.00     0.035 H 
ATOM     16  H2  <0> d          -3.866   2.787   0.370  0.00  0.00     0.035 H 
ATOM     17  H3  <0> d          -2.585   2.245  -0.741  0.00  0.00     0.035 H 
ENDBRANCH   1  14
BRANCH   4  18
ATOM     18  C8  <0> d           1.357   2.100   2.724  0.00  0.00    -0.037 C 
ATOM     19  H8  <0> d           1.867   3.038   2.506  0.00  0.00     0.035 H 
ATOM     20  H9  <0> d           1.483   1.855   3.779  0.00  0.00     0.035 H 
ATOM     21  H10 <0> d           1.782   1.304   2.113  0.00  0.00     0.035 H 
ENDBRANCH   4  18
TORSDOF 4
