REMARK  2 active torsions:
REMARK  status: ('A' for Active; 'I' for Inactive)
REMARK    1  A    between atoms: C1_1  and  C2_2 
REMARK    2  A    between atoms: C4_4  and  C5_8 
ROOT
ATOM      1  C2  <0> d          -0.718   1.572   1.248  0.00  0.00     0.053 A 
ATOM      2  C3  <0> d          -0.113   1.845   2.474  0.00  0.00    -0.028 A 
ATOM      3  C4  <0> d          -1.086   2.261   3.339  0.00  0.00     0.080 A 
ATOM      4  N1  <0> d          -2.267   2.245   2.658  0.00  0.00    -0.276 N 
ATOM      5  H1  <0> d          -3.163   2.496   3.024  0.00  0.00     0.189 HD
ATOM      6  N2  <0> d          -2.000   1.814   1.352  0.00  0.00    -0.179 NA
ATOM      7  H5  <0> d           0.938   1.744   2.701  0.00  0.00     0.090 H 
ENDROOT
BRANCH   3   8
ATOM      8  C5  <0> d          -0.894   2.656   4.751  0.00  0.00     0.084 A 
ATOM      9  N3  <0> d           0.321   2.617   5.286  0.00  0.00    -0.259 NA
ATOM     10  C9  <0> d           0.534   2.965   6.539  0.00  0.00     0.003 A 
ATOM     11  C8  <0> d          -0.507   3.377   7.349  0.00  0.00    -0.066 A 
ATOM     12  H9  <0> d           1.537   2.925   6.939  0.00  0.00     0.114 H 
ATOM     13  C7  <0> d          -1.795   3.427   6.831  0.00  0.00    -0.079 A 
ATOM     14  H8  <0> d          -0.322   3.656   8.376  0.00  0.00     0.085 H 
ATOM     15  C6  <0> d          -1.991   3.061   5.512  0.00  0.00    -0.053 A 
ATOM     16  H7  <0> d          -2.624   3.745   7.445  0.00  0.00     0.083 H 
ATOM     17  H6  <0> d          -2.979   3.089   5.077  0.00  0.00     0.087 H 
ENDBRANCH   3   8
BRANCH   1  18
ATOM     18  C1  <0> d          -0.013   1.086   0.008  0.00  0.00    -0.034 C 
ATOM     19  H2  <0> d           0.002  -0.004   0.002  0.00  0.00     0.035 H 
ATOM     20  H3  <0> d           1.010   1.463   0.000  0.00  0.00     0.035 H 
ATOM     21  H4  <0> d          -0.540   1.447  -0.875  0.00  0.00     0.035 H 
ENDBRANCH   1  18
TORSDOF 2
