REMARK  4 active torsions:
REMARK  status: ('A' for Active; 'I' for Inactive)
REMARK    1  A    between atoms: C1_1  and  C2_2 
REMARK    2  A    between atoms: C2_2  and  N1_3 
REMARK    3  A    between atoms: C4_5  and  C7_9 
REMARK    4  A    between atoms: C5_6  and  C6_8 
ROOT
ATOM      1  N1  <0> d           0.646   5.176   0.024  0.00  0.00    -0.280 N 
ATOM      2  C3  <0> d           0.160   3.925   0.022  0.00  0.00     0.017 A 
ATOM      3  C4  <0> d           1.238   3.063   0.007  0.00  0.00     0.083 A 
ATOM      4  C5  <0> d           2.407   3.857   0.005  0.00  0.00     0.069 A 
ATOM      5  N2  <0> d           2.043   5.110   0.010  0.00  0.00    -0.177 NA
ATOM      6  H6  <0> d          -0.883   3.645   0.031  0.00  0.00     0.115 H 
ENDROOT
BRANCH   1   7
ATOM      7  C2  <0> d          -0.152   6.405   0.039  0.00  0.00     0.013 C 
ATOM      8  H4  <0> d           0.004   6.951  -0.891  0.00  0.00     0.066 H 
ATOM      9  H5  <0> d          -1.208   6.151   0.139  0.00  0.00     0.066 H 
BRANCH   7  10
ATOM     10  C1  <0> d           0.276   7.277   1.221  0.00  0.00    -0.059 C 
ATOM     11  H1  <0> d           1.331   7.530   1.122  0.00  0.00     0.029 H 
ATOM     12  H2  <0> d          -0.318   8.190   1.233  0.00  0.00     0.029 H 
ATOM     13  H3  <0> d           0.120   6.730   2.151  0.00  0.00     0.029 H 
ENDBRANCH   7  10
ENDBRANCH   1   7
BRANCH   4  14
ATOM     14  C6  <0> d           3.825   3.347  -0.004  0.00  0.00    -0.033 C 
ATOM     15  H7  <0> d           4.162   3.229  -1.034  0.00  0.00     0.035 H 
ATOM     16  H8  <0> d           4.471   4.058   0.511  0.00  0.00     0.035 H 
ATOM     17  H9  <0> d           3.868   2.384   0.505  0.00  0.00     0.035 H 
ENDBRANCH   4  14
BRANCH   3  18
ATOM     18  C7  <0> d           1.181   1.591  -0.001  0.00  0.00     0.212 C 
ATOM     19  O1  <0> d           2.209   0.943  -0.014  0.00  0.00    -0.644 OA
ATOM     20  O2  <0> d          -0.011   0.963   0.007  0.00  0.00    -0.644 OA
ENDBRANCH   3  18
TORSDOF 4
