REMARK  2 active torsions:
REMARK  status: ('A' for Active; 'I' for Inactive)
REMARK    1  A    between atoms: C1_1  and  O1_2 
REMARK    2  A    between atoms: O1_2  and  C2_3 
ROOT
ATOM      1  C2  <0> d          -1.415  -0.535   0.012  0.00  0.00     0.064 C 
ATOM      2  H1  <0> d          -1.687  -0.868   1.014  0.00  0.00     0.090 H 
ATOM      3  C3  <0> d          -2.297   0.658  -0.413  0.00  0.00    -0.033 C 
ATOM      4  C4  <0> d          -1.448   1.871   0.020  0.00  0.00    -0.038 C 
ATOM      5  C5  <0> d          -0.017   1.378   0.010  0.00  0.00    -0.049 A 
ATOM      6  C6  <0> d           0.002  -0.004   0.002  0.00  0.00    -0.023 A 
ATOM      7  C7  <0> d           1.212  -0.677  -0.013  0.00  0.00    -0.074 A 
ATOM      8  C8  <0> d           2.400   0.029  -0.021  0.00  0.00    -0.082 A 
ATOM      9  C9  <0> d           2.381   1.411  -0.013  0.00  0.00    -0.082 A 
ATOM     10  C10 <0> d           1.175   2.084   0.002  0.00  0.00    -0.076 A 
ATOM     11  H5  <0> d          -2.449   0.662  -1.493  0.00  0.00     0.037 H 
ATOM     12  H6  <0> d          -3.252   0.641   0.110  0.00  0.00     0.037 H 
ATOM     13  H7  <0> d          -1.733   2.185   1.024  0.00  0.00     0.040 H 
ATOM     14  H8  <0> d          -1.570   2.694  -0.684  0.00  0.00     0.040 H 
ATOM     15  H9  <0> d           1.228  -1.757  -0.019  0.00  0.00     0.084 H 
ATOM     16  H10 <0> d           3.342  -0.499  -0.032  0.00  0.00     0.083 H 
ATOM     17  H11 <0> d           3.309   1.964  -0.019  0.00  0.00     0.083 H 
ATOM     18  H12 <0> d           1.161   3.164   0.008  0.00  0.00     0.084 H 
ENDROOT
BRANCH   1  19
ATOM     19  O1  <0> d          -1.550  -1.609  -0.921  0.00  0.00    -0.386 OA
BRANCH  19  20
ATOM     20  C1  <0> d          -1.310  -2.901  -0.359  0.00  0.00     0.005 C 
ATOM     21  H2  <0> d          -1.432  -3.660  -1.131  0.00  0.00     0.066 H 
ATOM     22  H3  <0> d          -0.295  -2.943   0.035  0.00  0.00     0.066 H 
ATOM     23  H4  <0> d          -2.021  -3.084   0.446  0.00  0.00     0.066 H 
ENDBRANCH  19  20
ENDBRANCH   1  19
TORSDOF 2
