REMARK  5 active torsions:
REMARK  status: ('A' for Active; 'I' for Inactive)
REMARK    1  A    between atoms: C1_1  and  N1_2 
REMARK    2  A    between atoms: C2_3  and  N3_11 
REMARK    3  A    between atoms: C4_5  and  C5_7 
REMARK    4  A    between atoms: C5_7  and  O2_9 
REMARK    5  A    between atoms: O2_9  and  C6_10 
ROOT
ATOM      1  N1  <0> d           0.002  -0.004   0.002  0.00  0.00    -0.258 N 
ATOM      2  C2  <0> d           0.008  -0.796  -1.103  0.00  0.00     0.119 A 
ATOM      3  C3  <0> d           0.027  -2.089  -0.687  0.00  0.00    -0.004 A 
ATOM      4  C4  <0> d           0.034  -2.087   0.724  0.00  0.00     0.155 A 
ATOM      5  N2  <0> d           0.025  -0.832   1.131  0.00  0.00    -0.165 NA
ATOM      6  H4  <0> d           0.036  -2.962  -1.322  0.00  0.00     0.093 H 
ENDROOT
BRANCH   4   7
ATOM      7  C5  <0> d           0.054  -3.280   1.592  0.00  0.00     0.313 C 
ATOM      8  O1  <0> d           0.067  -4.390   1.099  0.00  0.00    -0.257 OA
BRANCH   7   9
ATOM      9  O2  <0> d           0.058  -3.138   2.932  0.00  0.00    -0.321 OA
BRANCH   9  10
ATOM     10  C6  <0> d           0.078  -4.336   3.711  0.00  0.00     0.013 C 
ATOM     11  H5  <0> d          -0.805  -4.933   3.482  0.00  0.00     0.067 H 
ATOM     12  H6  <0> d           0.975  -4.909   3.474  0.00  0.00     0.067 H 
ATOM     13  H7  <0> d           0.079  -4.080   4.771  0.00  0.00     0.067 H 
ENDBRANCH   9  10
ENDBRANCH   7   9
ENDBRANCH   4   7
BRANCH   2  14
ATOM     14  N3  <0> d          -0.004  -0.360  -2.425  0.00  0.00    -0.384 N 
ATOM     15  H8  <0> d          -0.019   0.590  -2.623  0.00  0.00     0.157 HD
ATOM     16  H9  <0> d           0.001  -1.006  -3.149  0.00  0.00     0.157 HD
ENDBRANCH   2  14
BRANCH   1  17
ATOM     17  C1  <0> d          -0.018   1.461   0.010  0.00  0.00     0.004 C 
ATOM     18  H1  <0> d           1.005   1.838   0.002  0.00  0.00     0.059 H 
ATOM     19  H2  <0> d          -0.545   1.822  -0.873  0.00  0.00     0.059 H 
ATOM     20  H3  <0> d          -0.528   1.812   0.907  0.00  0.00     0.059 H 
ENDBRANCH   1  17
TORSDOF 5
