REMARK  8 active torsions:
REMARK  status: ('A' for Active; 'I' for Inactive)
REMARK    1  A    between atoms: C1_1  and  C2_2 
REMARK    2  A    between atoms: C2_2  and  C3_3 
REMARK    3  A    between atoms: C2_2  and  C4_4 
REMARK    4  A    between atoms: C2_2  and  C5_5 
REMARK    5  A    between atoms: C5_5  and  C6_7 
REMARK    6  A    between atoms: C5_5  and  N1_11 
REMARK    7  A    between atoms: C6_7  and  O2_9 
REMARK    8  A    between atoms: O2_9  and  C7_10 
ROOT
ATOM      1  C2  <0> d           0.002  -0.004   0.002  0.00  0.00    -0.011 C 
ENDROOT
BRANCH   1   2
ATOM      2  C1  <0> d          -0.019   1.526   0.010  0.00  0.00    -0.067 C 
ATOM      3  H2  <0> d           1.004   1.903   0.003  0.00  0.00     0.028 H 
ATOM      4  H3  <0> d          -0.546   1.887  -0.873  0.00  0.00     0.028 H 
ATOM      5  H4  <0> d          -0.529   1.877   0.907  0.00  0.00     0.028 H 
ENDBRANCH   1   2
BRANCH   1   6
ATOM      6  C3  <0> d           0.742  -0.511   1.242  0.00  0.00    -0.067 C 
ATOM      7  H5  <0> d           0.232  -0.159   2.138  0.00  0.00     0.028 H 
ATOM      8  H6  <0> d           0.757  -1.601   1.236  0.00  0.00     0.028 H 
ATOM      9  H7  <0> d           1.765  -0.134   1.234  0.00  0.00     0.028 H 
ENDBRANCH   1   6
BRANCH   1  10
ATOM     10  C4  <0> d          -1.433  -0.534   0.013  0.00  0.00    -0.067 C 
ATOM     11  H8  <0> d          -1.960  -0.173  -0.870  0.00  0.00     0.028 H 
ATOM     12  H9  <0> d          -1.419  -1.623   0.007  0.00  0.00     0.028 H 
ATOM     13  H10 <0> d          -1.944  -0.182   0.910  0.00  0.00     0.028 H 
ENDBRANCH   1  10
BRANCH   1  14
ATOM     14  C5  <0> d           0.718  -0.497  -1.257  0.00  0.00     0.219 C 
ATOM     15  H1  <0> d           0.191  -0.136  -2.140  0.00  0.00     0.105 H 
BRANCH  14  16
ATOM     16  C6  <0> d           2.132   0.024  -1.268  0.00  0.00     0.292 C 
ATOM     17  O1  <0> d           3.042  -0.691  -0.922  0.00  0.00    -0.263 OA
BRANCH  16  18
ATOM     18  O2  <0> d           2.380   1.283  -1.661  0.00  0.00    -0.325 OA
BRANCH  18  19
ATOM     19  C7  <0> d           3.743   1.711  -1.646  0.00  0.00     0.013 C 
ATOM     20  H11 <0> d           4.330   1.076  -2.309  0.00  0.00     0.067 H 
ATOM     21  H12 <0> d           3.803   2.745  -1.985  0.00  0.00     0.067 H 
ATOM     22  H13 <0> d           4.136   1.639  -0.632  0.00  0.00     0.067 H 
ENDBRANCH  18  19
ENDBRANCH  16  18
ENDBRANCH  14  16
BRANCH  14  23
ATOM     23  N1  <0> d           0.738  -1.966  -1.265  0.00  0.00     0.093 N 
ATOM     24  H14 <0> d           1.149  -2.318  -2.117  0.00  0.00     0.314 HD
ATOM     25  H15 <0> d           1.222  -2.326  -0.456  0.00  0.00     0.314 HD
ENDBRANCH  14  23
ENDBRANCH   1  14
TORSDOF 8
