REMARK  4 active torsions:
REMARK  status: ('A' for Active; 'I' for Inactive)
REMARK    1  A    between atoms: C1_1  and  C2_2 
REMARK    2  A    between atoms: C4_4  and  N3_8 
REMARK    3  A    between atoms: N2_6  and  C5_7 
REMARK    4  A    between atoms: N3_8  and  C6_9 
ROOT
ATOM      1  C2  <0> d           0.002  -0.004   0.002  0.00  0.00     0.030 A 
ATOM      2  C3  <0> d           0.008  -0.794  -1.096  0.00  0.00    -0.014 A 
ATOM      3  C4  <0> d           0.029  -2.131  -0.664  0.00  0.00     0.145 A 
ATOM      4  N1  <0> d           0.034  -2.134   0.648  0.00  0.00    -0.155 NA
ATOM      5  N2  <0> d           0.023  -0.804   1.089  0.00  0.00    -0.277 N 
ATOM      6  H4  <0> d          -0.001  -0.458  -2.122  0.00  0.00     0.092 H 
ENDROOT
BRANCH   3   7
ATOM      7  N3  <0> d           0.040  -3.261  -1.490  0.00  0.00    -0.378 N 
ATOM      8  H8  <0> d           0.054  -4.148  -1.097  0.00  0.00     0.160 HD
BRANCH   7   9
ATOM      9  C6  <0> d           0.031  -3.105  -2.946  0.00  0.00    -0.020 C 
ATOM     10  H9  <0> d          -0.868  -2.567  -3.248  0.00  0.00     0.056 H 
ATOM     11  H10 <0> d           0.912  -2.543  -3.257  0.00  0.00     0.056 H 
ATOM     12  H11 <0> d           0.042  -4.088  -3.417  0.00  0.00     0.056 H 
ENDBRANCH   7   9
ENDBRANCH   3   7
BRANCH   1  13
ATOM     13  C1  <0> d          -0.018   1.503   0.010  0.00  0.00    -0.036 C 
ATOM     14  H1  <0> d           1.004   1.880   0.003  0.00  0.00     0.035 H 
ATOM     15  H2  <0> d          -0.545   1.864  -0.873  0.00  0.00     0.035 H 
ATOM     16  H3  <0> d          -0.529   1.854   0.907  0.00  0.00     0.035 H 
ENDBRANCH   1  13
BRANCH   5  17
ATOM     17  C5  <0> d           0.031  -0.360   2.485  0.00  0.00     0.003 C 
ATOM     18  H5  <0> d          -0.995  -0.264   2.841  0.00  0.00     0.059 H 
ATOM     19  H6  <0> d           0.560  -1.091   3.095  0.00  0.00     0.059 H 
ATOM     20  H7  <0> d           0.532   0.605   2.556  0.00  0.00     0.059 H 
ENDBRANCH   5  17
TORSDOF 4
