REMARK  4 active torsions:
REMARK  status: ('A' for Active; 'I' for Inactive)
REMARK    1  A    between atoms: C1_1  and  C2_2 
REMARK    2  A    between atoms: C6_6  and  C9_10 
REMARK    3  A    between atoms: C7_7  and  O1_8 
REMARK    4  A    between atoms: O1_8  and  C8_9 
ROOT
ATOM      1  C2  <0> d           1.160   3.163   0.008  0.00  0.00    -0.028 A 
ATOM      2  C3  <0> d           1.176   1.782   0.000  0.00  0.00    -0.074 A 
ATOM      3  C4  <0> d          -0.013   1.076   0.008  0.00  0.00    -0.082 A 
ATOM      4  C5  <0> d          -1.220   1.750   0.017  0.00  0.00    -0.074 A 
ATOM      5  C6  <0> d          -1.241   3.131   0.031  0.00  0.00    -0.028 A 
ATOM      6  C7  <0> d          -0.050   3.842   0.024  0.00  0.00     0.080 A 
ATOM      7  H4  <0> d           2.118   1.254  -0.011  0.00  0.00     0.084 H 
ATOM      8  H5  <0> d           0.002  -0.004   0.002  0.00  0.00     0.083 H 
ATOM      9  H6  <0> d          -2.147   1.196   0.018  0.00  0.00     0.084 H 
ENDROOT
BRANCH   6  10
ATOM     10  O1  <0> d          -0.069   5.201   0.031  0.00  0.00    -0.355 OA
BRANCH  10  11
ATOM     11  C8  <0> d          -0.089   5.856  -1.238  0.00  0.00     0.010 C 
ATOM     12  H7  <0> d           0.799   5.579  -1.806  0.00  0.00     0.066 H 
ATOM     13  H8  <0> d          -0.981   5.554  -1.789  0.00  0.00     0.066 H 
ATOM     14  H9  <0> d          -0.103   6.936  -1.090  0.00  0.00     0.066 H 
ENDBRANCH  10  11
ENDBRANCH   6  10
BRANCH   1  15
ATOM     15  C1  <0> d           2.456   3.933   0.001  0.00  0.00    -0.049 C 
ATOM     16  H1  <0> d           2.759   4.124  -1.028  0.00  0.00     0.033 H 
ATOM     17  H2  <0> d           2.319   4.881   0.522  0.00  0.00     0.033 H 
ATOM     18  H3  <0> d           3.227   3.350   0.505  0.00  0.00     0.033 H 
ENDBRANCH   1  15
BRANCH   5  19
ATOM     19  C9  <0> d          -2.558   3.865   0.048  0.00  0.00    -0.049 C 
ATOM     20  H10 <0> d          -2.885   4.048  -0.976  0.00  0.00     0.033 H 
ATOM     21  H11 <0> d          -3.303   3.261   0.565  0.00  0.00     0.033 H 
ATOM     22  H12 <0> d          -2.437   4.816   0.566  0.00  0.00     0.033 H 
ENDBRANCH   5  19
TORSDOF 4
