REMARK  5 active torsions:
REMARK  status: ('A' for Active; 'I' for Inactive)
REMARK    1  A    between atoms: C1_1  and  C2_2 
REMARK    2  A    between atoms: C2_2  and  C3_4 
REMARK    3  A    between atoms: C2_2  and  N1_8 
REMARK    4  A    between atoms: C3_4  and  O2_6 
REMARK    5  A    between atoms: O2_6  and  C4_7 
ROOT
ATOM      1  C2  <0> d           0.002  -0.004   0.002  0.00  0.00     0.209 C 
ATOM      2  H1  <0> d          -1.020  -0.381   0.010  0.00  0.00     0.103 H 
ENDROOT
BRANCH   1   3
ATOM      3  C1  <0> d          -0.019   1.526   0.010  0.00  0.00    -0.039 C 
ATOM      4  H2  <0> d           1.004   1.903   0.003  0.00  0.00     0.031 H 
ATOM      5  H3  <0> d          -0.546   1.887  -0.873  0.00  0.00     0.031 H 
ATOM      6  H4  <0> d          -0.529   1.877   0.907  0.00  0.00     0.031 H 
ENDBRANCH   1   3
BRANCH   1   7
ATOM      7  C3  <0> d           0.731  -0.503   1.223  0.00  0.00     0.291 C 
ATOM      8  O1  <0> d           1.722  -1.184   1.099  0.00  0.00    -0.263 OA
BRANCH   7   9
ATOM      9  O2  <0> d           0.280  -0.192   2.448  0.00  0.00    -0.325 OA
BRANCH   9  10
ATOM     10  C4  <0> d           1.020  -0.699   3.560  0.00  0.00     0.013 C 
ATOM     11  H5  <0> d           1.034  -1.788   3.522  0.00  0.00     0.067 H 
ATOM     12  H6  <0> d           2.041  -0.321   3.520  0.00  0.00     0.067 H 
ATOM     13  H7  <0> d           0.549  -0.374   4.488  0.00  0.00     0.067 H 
ENDBRANCH   9  10
ENDBRANCH   7   9
ENDBRANCH   1   7
BRANCH   1  14
ATOM     14  N1  <0> d           0.690  -0.478  -1.207  0.00  0.00     0.092 N 
ATOM     15  H8  <0> d           0.773  -1.483  -1.204  0.00  0.00     0.313 HD
ATOM     16  H9  <0> d           0.220  -0.156  -2.039  0.00  0.00     0.313 HD
ENDBRANCH   1  14
TORSDOF 5
