REMARK  0 active torsions:
REMARK  status: ('A' for Active; 'I' for Inactive)
ROOT
ATOM      1  C1  <0> d           3.585   0.682  -0.029  0.00  0.00    -0.050 A 
ATOM      2  C2  <0> d           4.167  -0.573  -0.042  0.00  0.00     0.003 A 
ATOM      3  N1  <0> d           3.429  -1.665  -0.041  0.00  0.00    -0.272 NA
ATOM      4  C3  <0> d           2.109  -1.620  -0.027  0.00  0.00     0.011 A 
ATOM      5  C4  <0> d           1.452  -0.412  -0.014  0.00  0.00    -0.000 A 
ATOM      6  C5  <0> d           2.193   0.775  -0.015  0.00  0.00     0.050 A 
ATOM      7  C6  <0> d           1.247   1.906   0.000  0.00  0.00     0.294 A 
ATOM      8  O1  <0> d           1.564   3.078   0.004  0.00  0.00    -0.259 OA
ATOM      9  O2  <0> d          -0.018   1.450   0.010  0.00  0.00    -0.313 OA
ATOM     10  C7  <0> d           0.002  -0.004   0.002  0.00  0.00     0.055 A 
ATOM     11  H1  <0> d           4.196   1.572  -0.030  0.00  0.00     0.087 H 
ATOM     12  H2  <0> d           5.243  -0.659  -0.054  0.00  0.00     0.114 H 
ATOM     13  H3  <0> d           1.542  -2.539  -0.027  0.00  0.00     0.115 H 
ATOM     14  H4  <0> d          -0.485  -0.389   0.898  0.00  0.00     0.082 H 
ATOM     15  H5  <0> d          -0.503  -0.380  -0.888  0.00  0.00     0.082 H 
ENDROOT
TORSDOF 0
