REMARK  2 active torsions:
REMARK  status: ('A' for Active; 'I' for Inactive)
REMARK    1  A    between atoms: C1_1  and  C2_2 
REMARK    2  A    between atoms: C9_11  and  O1_12 
ROOT
ATOM      1  C2  <0> d           0.002  -0.004   0.002  0.00  0.00     0.028 C 
ATOM      2  C3  <0> d          -1.101  -0.762   0.003  0.00  0.00    -0.064 C 
ATOM      3  C4  <0> d          -0.602  -2.179  -0.069  0.00  0.00     0.052 C 
ATOM      4  H1  <0> d          -0.849  -2.624  -1.033  0.00  0.00     0.066 H 
ATOM      5  C5  <0> d           0.903  -2.009   0.074  0.00  0.00     0.049 C 
ATOM      6  N1  <0> d           1.132  -0.736  -0.013  0.00  0.00    -0.258 NA
ATOM      7  C6  <0> d           1.736  -3.090   0.404  0.00  0.00    -0.058 C 
ATOM      8  C7  <0> d           1.142  -4.084   1.139  0.00  0.00    -0.079 C 
ATOM      9  C8  <0> d          -0.192  -3.962   1.568  0.00  0.00    -0.054 C 
ATOM     10  C9  <0> d          -1.074  -3.058   1.053  0.00  0.00     0.057 C 
ATOM     11  H5  <0> d          -2.128  -0.428   0.047  0.00  0.00     0.081 H 
ATOM     12  H6  <0> d           2.772  -3.136   0.100  0.00  0.00     0.086 H 
ATOM     13  H7  <0> d           1.705  -4.971   1.390  0.00  0.00     0.083 H 
ATOM     14  H8  <0> d          -0.545  -4.630   2.339  0.00  0.00     0.087 H 
ENDROOT
BRANCH   1  15
ATOM     15  C1  <0> d          -0.018   1.503   0.010  0.00  0.00    -0.036 C 
ATOM     16  H2  <0> d           1.004   1.880   0.003  0.00  0.00     0.035 H 
ATOM     17  H3  <0> d          -0.545   1.864  -0.873  0.00  0.00     0.035 H 
ATOM     18  H4  <0> d          -0.529   1.854   0.907  0.00  0.00     0.035 H 
ENDBRANCH   1  15
BRANCH  10  19
ATOM     19  O1  <0> d          -2.327  -2.937   1.542  0.00  0.00    -0.364 OA
ATOM     20  H9  <0> d          -2.530  -3.550   2.262  0.00  0.00     0.217 HD
ENDBRANCH  10  19
TORSDOF 2
