REMARK  2 active torsions:
REMARK  status: ('A' for Active; 'I' for Inactive)
REMARK    1  A    between atoms: C1_1  and  C2_2 
REMARK    2  A    between atoms: C2_2  and  C3_4 
ROOT
ATOM      1  C3  <0> d          -1.302   1.924   0.019  0.00  0.00     0.014 A 
ATOM      2  C4  <0> d          -2.517   1.227   0.021  0.00  0.00    -0.052 A 
ATOM      3  C5  <0> d          -3.699   1.942   0.030  0.00  0.00     0.005 A 
ATOM      4  N1  <0> d          -3.694   3.260   0.037  0.00  0.00    -0.249 NA
ATOM      5  C6  <0> d          -2.574   3.957   0.035  0.00  0.00     0.126 A 
ATOM      6  C7  <0> d          -1.344   3.324   0.032  0.00  0.00    -0.030 A 
ATOM      7 Cl1  <0> d          -2.644   5.691   0.044  0.00  0.00    -0.062 Cl
ATOM      8  H4  <0> d          -2.530   0.147   0.015  0.00  0.00     0.087 H 
ATOM      9  H5  <0> d          -4.641   1.413   0.032  0.00  0.00     0.114 H 
ATOM     10  H6  <0> d          -0.430   3.900   0.036  0.00  0.00     0.089 H 
ENDROOT
BRANCH   1  11
ATOM     11  C2  <0> d          -0.014   1.204   0.009  0.00  0.00     0.155 C 
ATOM     12  O1  <0> d           0.002  -0.004   0.002  0.00  0.00    -0.293 OA
BRANCH  11  13
ATOM     13  C1  <0> d           1.280   1.975   0.000  0.00  0.00    -0.017 C 
ATOM     14  H1  <0> d           2.049   1.336  -0.010  0.00  0.00     0.038 H 
ATOM     15  H2  <0> d           1.321   2.607  -0.887  0.00  0.00     0.038 H 
ATOM     16  H3  <0> d           1.338   2.598   0.893  0.00  0.00     0.038 H 
ENDBRANCH  11  13
ENDBRANCH   1  11
TORSDOF 2
