REMARK  3 active torsions:
REMARK  status: ('A' for Active; 'I' for Inactive)
REMARK    1  A    between atoms: C1_1  and  C2_2 
REMARK    2  A    between atoms: C5_5  and  N1_9 
REMARK    3  A    between atoms: N1_9  and  C8_10 
ROOT
ATOM      1  C2  <0> d           2.397   0.029  -0.021  0.00  0.00    -0.059 A 
ATOM      2  C3  <0> d           1.208  -0.677  -0.013  0.00  0.00    -0.075 A 
ATOM      3  C4  <0> d           0.002  -0.004   0.002  0.00  0.00    -0.054 A 
ATOM      4  C5  <0> d          -0.017   1.384   0.010  0.00  0.00     0.066 A 
ATOM      5  C6  <0> d           1.180   2.092   0.002  0.00  0.00     0.143 A 
ATOM      6  C7  <0> d           2.384   1.412  -0.014  0.00  0.00    -0.038 A 
ATOM      7  F1  <0> d           1.167   3.443   0.009  0.00  0.00    -0.204 F 
ATOM      8  H4  <0> d           1.223  -1.757  -0.019  0.00  0.00     0.084 H 
ATOM      9  H5  <0> d          -0.925  -0.557   0.007  0.00  0.00     0.087 H 
ATOM     10  H6  <0> d           3.314   1.960  -0.021  0.00  0.00     0.089 H 
ENDROOT
BRANCH   4  11
ATOM     11  N1  <0> d          -1.236   2.068   0.019  0.00  0.00    -0.392 N 
ATOM     12  H7  <0> d          -1.250   3.168   0.025  0.00  0.00     0.159 HD
BRANCH  11  13
ATOM     13  C8  <0> d          -2.496   1.321   0.021  0.00  0.00    -0.021 C 
ATOM     14  H8  <0> d          -3.341   2.025   0.029  0.00  0.00     0.056 H 
ATOM     15  H9  <0> d          -2.542   0.683   0.916  0.00  0.00     0.056 H 
ATOM     16  H10 <0> d          -2.551   0.692  -0.880  0.00  0.00     0.056 H 
ENDBRANCH  11  13
ENDBRANCH   4  11
BRANCH   1  17
ATOM     17  C1  <0> d           3.710  -0.710  -0.038  0.00  0.00    -0.051 C 
ATOM     18  H1  <0> d           3.521  -1.794  -0.042  0.00  0.00     0.033 H 
ATOM     19  H2  <0> d           4.293  -0.442   0.856  0.00  0.00     0.033 H 
ATOM     20  H3  <0> d           4.275  -0.433  -0.941  0.00  0.00     0.033 H 
ENDBRANCH   1  17
TORSDOF 3
