REMARK  0 active torsions:
REMARK  status: ('A' for Active; 'I' for Inactive)
ROOT
ATOM      1  C1  <0> d           2.179   4.083   0.003  0.00  0.00    -0.051 A 
ATOM      2  C2  <0> d           3.425   3.562  -0.013  0.00  0.00    -0.018 A 
ATOM      3  N1  <0> d           3.606   2.208  -0.021  0.00  0.00    -0.333 N 
ATOM      4  H1  <0> d           4.623   1.790  -0.034  0.00  0.00     0.168 HD
ATOM      5  C3  <0> d           2.578   1.346  -0.015  0.00  0.00     0.256 A 
ATOM      6  O1  <0> d           2.793   0.146  -0.023  0.00  0.00    -0.267 OA
ATOM      7  C4  <0> d           1.230   1.827   0.000  0.00  0.00     0.050 A 
ATOM      8  C5  <0> d           1.075   3.225   0.009  0.00  0.00     0.021 A 
ATOM      9  S1  <0> d          -0.683   3.451   0.026  0.00  0.00    -0.101 SA
ATOM     10  C6  <0> d          -1.180   1.739   0.017  0.00  0.00    -0.043 A 
ATOM     11  C7  <0> d          -0.013   1.076   0.008  0.00  0.00    -0.060 A 
ATOM     12  H2  <0> d           2.037   5.153   0.011  0.00  0.00     0.087 H 
ATOM     13  H3  <0> d           4.282   4.218  -0.018  0.00  0.00     0.111 H 
ATOM     14  H4  <0> d          -2.181   1.332   0.019  0.00  0.00     0.095 H 
ATOM     15  H5  <0> d           0.002  -0.004   0.002  0.00  0.00     0.085 H 
ENDROOT
TORSDOF 0
