REMARK  3 active torsions:
REMARK  status: ('A' for Active; 'I' for Inactive)
REMARK    1  A    between atoms: C1_1  and  C2_2 
REMARK    2  A    between atoms: C4_5  and  O2_10 
REMARK    3  A    between atoms: O2_10  and  C7_11 
ROOT
ATOM      1  C2  <0> d           0.002  -0.004   0.002  0.00  0.00    -0.035 C 
ATOM      2  H1  <0> d           0.512  -0.356  -0.895  0.00  0.00     0.045 H 
ATOM      3  C3  <0> d          -1.436  -0.535   0.013  0.00  0.00    -0.013 C 
ATOM      4  C4  <0> d          -1.390  -2.034   0.337  0.00  0.00     0.136 C 
ATOM      5  H2  <0> d          -0.766  -2.549  -0.393  0.00  0.00     0.129 H 
ATOM      6  O1  <0> d          -0.832  -2.193   1.645  0.00  0.00    -0.333 OA
ATOM      7  C5  <0> d           0.300  -1.512   1.931  0.00  0.00     0.012 C 
ATOM      8  C6  <0> d           0.729  -0.503   1.221  0.00  0.00    -0.078 C 
ATOM      9  H6  <0> d          -2.015  -0.011   0.774  0.00  0.00     0.041 H 
ATOM     10  H7  <0> d          -1.891  -0.384  -0.966  0.00  0.00     0.041 H 
ATOM     11  H8  <0> d           0.879  -1.818   2.789  0.00  0.00     0.122 H 
ATOM     12  H9  <0> d           1.641  -0.007   1.521  0.00  0.00     0.080 H 
ENDROOT
BRANCH   4  13
ATOM     13  O2  <0> d          -2.712  -2.575   0.308  0.00  0.00    -0.366 OA
BRANCH  13  14
ATOM     14  C7  <0> d          -2.765  -3.991   0.486  0.00  0.00     0.007 C 
ATOM     15  H10 <0> d          -2.201  -4.479  -0.308  0.00  0.00     0.066 H 
ATOM     16  H11 <0> d          -2.333  -4.252   1.452  0.00  0.00     0.066 H 
ATOM     17  H12 <0> d          -3.803  -4.323   0.451  0.00  0.00     0.066 H 
ENDBRANCH  13  14
ENDBRANCH   4  13
BRANCH   1  18
ATOM     18  C1  <0> d          -0.019   1.526   0.010  0.00  0.00    -0.069 C 
ATOM     19  H3  <0> d           1.004   1.903   0.003  0.00  0.00     0.028 H 
ATOM     20  H4  <0> d          -0.546   1.887  -0.873  0.00  0.00     0.028 H 
ATOM     21  H5  <0> d          -0.529   1.877   0.907  0.00  0.00     0.028 H 
ENDBRANCH   1  18
TORSDOF 3
