REMARK  2 active torsions:
REMARK  status: ('A' for Active; 'I' for Inactive)
REMARK    1  A    between atoms: C2_2  and  C5_6 
REMARK    2  A    between atoms: C5_6  and  O2_7 
ROOT
ATOM      1  C1  <0> d          -0.018   1.510   0.010  0.00  0.00    -0.004 C 
ATOM      2  C2  <0> d           1.517   1.461  -0.005  0.00  0.00    -0.021 C 
ATOM      3  C3  <0> d           1.367   0.080   0.653  0.00  0.00    -0.004 C 
ATOM      4  C4  <0> d           0.002  -0.004   0.002  0.00  0.00     0.127 C 
ATOM      5  O1  <0> d          -0.739  -0.885  -0.362  0.00  0.00    -0.298 OA
ATOM      6  H1  <0> d          -0.432   1.935   0.925  0.00  0.00     0.045 H 
ATOM      7  H2  <0> d          -0.449   1.945  -0.891  0.00  0.00     0.045 H 
ATOM      8  H3  <0> d           1.947   1.428  -1.006  0.00  0.00     0.044 H 
ATOM      9  H4  <0> d           2.074  -0.660   0.279  0.00  0.00     0.045 H 
ATOM     10  H5  <0> d           1.329   0.118   1.741  0.00  0.00     0.045 H 
ENDROOT
BRANCH   2  11
ATOM     11  C5  <0> d           2.178   2.506   0.897  0.00  0.00     0.021 C 
ATOM     12  H6  <0> d           1.814   3.498   0.630  0.00  0.00     0.074 H 
ATOM     13  H7  <0> d           1.930   2.296   1.938  0.00  0.00     0.074 H 
BRANCH  11  14
ATOM     14  O2  <0> d           3.595   2.457   0.725  0.00  0.00    -0.400 OA
ATOM     15  H8  <0> d           4.080   3.094   1.268  0.00  0.00     0.209 HD
ENDBRANCH  11  14
ENDBRANCH   2  11
TORSDOF 2
