REMARK  4 active torsions:
REMARK  status: ('A' for Active; 'I' for Inactive)
REMARK    1  A    between atoms: C2_2  and  C3_3 
REMARK    2  A    between atoms: C3_3  and  O1_4 
REMARK    3  A    between atoms: O1_4  and  C4_5 
REMARK    4  A    between atoms: C4_5  and  C5_6 
ROOT
ATOM      1  C1  <0> d           0.075  -2.608   4.004  0.00  0.00    -0.152 C 
ATOM      2  C2  <0> d           0.060  -2.300   2.872  0.00  0.00    -0.091 C 
ATOM      3  H1  <0> d           0.089  -2.885   5.017  0.00  0.00     0.166 H 
ENDROOT
BRANCH   2   4
ATOM      4  C3  <0> d           0.042  -1.913   1.452  0.00  0.00     0.073 C 
ATOM      5  H2  <0> d          -0.847  -2.325   0.974  0.00  0.00     0.093 H 
ATOM      6  H3  <0> d           0.932  -2.301   0.957  0.00  0.00     0.093 H 
BRANCH   4   7
ATOM      7  O1  <0> d           0.021  -0.488   1.347  0.00  0.00    -0.375 OA
BRANCH   7   8
ATOM      8  C4  <0> d           0.002  -0.004   0.002  0.00  0.00     0.044 C 
ATOM      9  H4  <0> d          -0.888  -0.377  -0.505  0.00  0.00     0.081 H 
ATOM     10  H5  <0> d           0.892  -0.352  -0.522  0.00  0.00     0.081 H 
BRANCH   8  11
ATOM     11  C5  <0> d          -0.018   1.503   0.010  0.00  0.00    -0.035 A 
ATOM     12  C10 <0> d           1.169   2.210   0.003  0.00  0.00    -0.075 A 
ATOM     13  C9  <0> d           1.151   3.592   0.010  0.00  0.00    -0.082 A 
ATOM     14  H10 <0> d           2.112   1.683  -0.009  0.00  0.00     0.084 H 
ATOM     15  C8  <0> d          -0.056   4.267   0.025  0.00  0.00    -0.083 A 
ATOM     16  H9  <0> d           2.078   4.145   0.004  0.00  0.00     0.083 H 
ATOM     17  C7  <0> d          -1.244   3.560   0.032  0.00  0.00    -0.082 A 
ATOM     18  H8  <0> d          -0.070   5.347   0.031  0.00  0.00     0.083 H 
ATOM     19  C6  <0> d          -1.225   2.178   0.020  0.00  0.00    -0.075 A 
ATOM     20  H7  <0> d          -2.186   4.087   0.044  0.00  0.00     0.083 H 
ATOM     21  H6  <0> d          -2.153   1.625   0.021  0.00  0.00     0.084 H 
ENDBRANCH   8  11
ENDBRANCH   7   8
ENDBRANCH   4   7
ENDBRANCH   2   4
TORSDOF 4
