REMARK  3 active torsions:
REMARK  status: ('A' for Active; 'I' for Inactive)
REMARK    1  A    between atoms: C1_1  and  O1_4 
REMARK    2  A    between atoms: O1_4  and  C3_5 
REMARK    3  A    between atoms: C3_5  and  C4_6 
ROOT
ATOM      1  C1  <0> d          -0.018   1.468   0.010  0.00  0.00     0.098 C 
ATOM      2  C2  <0> d           0.002  -0.004   0.002  0.00  0.00     0.085 C 
ATOM      3  N1  <0> d           0.018  -1.140  -0.004  0.00  0.00    -0.195 NA
ATOM      4  H1  <0> d          -0.545   1.829  -0.873  0.00  0.00     0.097 H 
ATOM      5  H2  <0> d          -0.528   1.819   0.907  0.00  0.00     0.097 H 
ENDROOT
BRANCH   1   6
ATOM      6  O1  <0> d           1.323   1.962  -0.000  0.00  0.00    -0.369 OA
BRANCH   6   7
ATOM      7  C3  <0> d           1.416   3.388   0.007  0.00  0.00     0.111 C 
ATOM      8  H3  <0> d           0.919   3.789  -0.876  0.00  0.00     0.088 H 
ATOM      9  H4  <0> d           0.936   3.780   0.903  0.00  0.00     0.088 H 
BRANCH   7  10
ATOM     10  C4  <0> d           2.889   3.803  -0.005  0.00  0.00     0.408 C 
ATOM     11  F1  <0> d           3.506   3.301  -1.156  0.00  0.00    -0.169 F 
ATOM     12  F2  <0> d           2.981   5.199   0.002  0.00  0.00    -0.169 F 
ATOM     13  F3  <0> d           3.527   3.288   1.128  0.00  0.00    -0.169 F 
ENDBRANCH   7  10
ENDBRANCH   6   7
ENDBRANCH   1   6
TORSDOF 3
