REMARK  2 active torsions:
REMARK  status: ('A' for Active; 'I' for Inactive)
REMARK    1  A    between atoms: C3_6  and  C4_7 
REMARK    2  A    between atoms: C4_7  and  O1_8 
ROOT
ATOM      1  C1  <0> d          -0.015   3.756   0.022  0.00  0.00    -0.039 A 
ATOM      2  C2  <0> d           0.297   5.119   0.028  0.00  0.00     0.024 A 
ATOM      3  N1  <0> d           1.600   5.240   0.016  0.00  0.00    -0.187 NA
ATOM      4  N2  <0> d           2.159   3.955   0.009  0.00  0.00    -0.281 N 
ATOM      5  H1  <0> d           3.135   3.738   0.005  0.00  0.00     0.189 HD
ATOM      6  C3  <0> d           1.147   3.062   0.008  0.00  0.00     0.052 A 
ATOM      7  H2  <0> d          -1.008   3.331   0.029  0.00  0.00     0.088 H 
ATOM      8  H3  <0> d          -0.414   5.931   0.040  0.00  0.00     0.117 H 
ENDROOT
BRANCH   6   9
ATOM      9  C4  <0> d           1.286   1.562  -0.002  0.00  0.00     0.056 C 
ATOM     10  H4  <0> d           1.840   1.243   0.881  0.00  0.00     0.083 H 
ATOM     11  H5  <0> d           1.823   1.252  -0.899  0.00  0.00     0.083 H 
BRANCH   9  12
ATOM     12  O1  <0> d          -0.011   0.963   0.007  0.00  0.00    -0.395 OA
ATOM     13  H6  <0> d           0.002  -0.004   0.002  0.00  0.00     0.209 HD
ENDBRANCH   9  12
ENDBRANCH   6   9
TORSDOF 2
