REMARK  4 active torsions:
REMARK  status: ('A' for Active; 'I' for Inactive)
REMARK    1  A    between atoms: C1_1  and  C2_2 
REMARK    2  A    between atoms: C2_2  and  O1_3 
REMARK    3  A    between atoms: O1_3  and  C3_4 
REMARK    4  A    between atoms: C3_4  and  O2_7 
ROOT
ATOM      1  C3  <0> d          -1.432  -1.925   0.005  0.00  0.00     0.161 A 
ATOM      2  C4  <0> d          -1.984  -2.590  -1.257  0.00  0.00    -0.008 A 
ATOM      3  C5  <0> d          -2.832  -2.541   0.015  0.00  0.00    -0.008 A 
ATOM      4  H6  <0> d          -2.276  -1.941  -2.082  0.00  0.00     0.041 H 
ATOM      5  H7  <0> d          -1.562  -3.554  -1.543  0.00  0.00     0.041 H 
ATOM      6  H8  <0> d          -2.969  -3.472   0.566  0.00  0.00     0.041 H 
ATOM      7  H9  <0> d          -3.682  -1.859   0.027  0.00  0.00     0.041 H 
ENDROOT
BRANCH   1   8
ATOM      8  O1  <0> d          -1.339  -0.499   0.012  0.00  0.00    -0.356 OA
BRANCH   8   9
ATOM      9  C2  <0> d           0.002  -0.004   0.002  0.00  0.00     0.020 C 
ATOM     10  H4  <0> d           0.512  -0.356  -0.895  0.00  0.00     0.073 H 
ATOM     11  H5  <0> d           0.529  -0.365   0.885  0.00  0.00     0.073 H 
BRANCH   9  12
ATOM     12  C1  <0> d          -0.019   1.526   0.010  0.00  0.00    -0.056 C 
ATOM     13  H1  <0> d           1.004   1.903   0.003  0.00  0.00     0.030 H 
ATOM     14  H2  <0> d          -0.546   1.887  -0.873  0.00  0.00     0.030 H 
ATOM     15  H3  <0> d          -0.529   1.877   0.907  0.00  0.00     0.030 H 
ENDBRANCH   9  12
ENDBRANCH   8   9
ENDBRANCH   1   8
BRANCH   1  16
ATOM     16  O2  <0> d          -0.403  -2.613   0.719  0.00  0.00    -0.365 OA
ATOM     17  H10 <0> d           0.461  -2.181   0.678  0.00  0.00     0.213 HD
ENDBRANCH   1  16
TORSDOF 4
