REMARK  1 active torsions:
REMARK  status: ('A' for Active; 'I' for Inactive)
REMARK    1  A    between atoms: C1_1  and  C2_2 
ROOT
ATOM      1  C2  <0> d          -1.234   2.112   0.019  0.00  0.00    -0.003 A 
ATOM      2  C3  <0> d          -0.017   1.428   0.010  0.00  0.00     0.056 A 
ATOM      3  C4  <0> d           1.180   2.145   0.002  0.00  0.00    -0.025 A 
ATOM      4  C5  <0> d           1.155   3.527   0.010  0.00  0.00     0.120 A 
ATOM      5  C6  <0> d          -0.055   4.200   0.025  0.00  0.00    -0.008 A 
ATOM      6  C7  <0> d          -1.247   3.494   0.033  0.00  0.00     0.126 A 
ATOM      7  F1  <0> d          -2.424   4.157   0.049  0.00  0.00    -0.205 F 
ATOM      8  F2  <0> d           2.314   4.222   0.002  0.00  0.00    -0.206 F 
ATOM      9  C8  <0> d           0.002  -0.004   0.002  0.00  0.00     0.100 C 
ATOM     10  N1  <0> d           0.018  -1.140  -0.004  0.00  0.00    -0.191 NA
ATOM     11  H4  <0> d           2.124   1.621  -0.010  0.00  0.00     0.090 H 
ATOM     12  H5  <0> d          -0.070   5.280   0.031  0.00  0.00     0.093 H 
ENDROOT
BRANCH   1  13
ATOM     13  C1  <0> d          -2.532   1.345   0.021  0.00  0.00    -0.047 C 
ATOM     14  H1  <0> d          -2.320   0.266   0.009  0.00  0.00     0.033 H 
ATOM     15  H2  <0> d          -3.118   1.614  -0.871  0.00  0.00     0.033 H 
ATOM     16  H3  <0> d          -3.105   1.596   0.925  0.00  0.00     0.033 H 
ENDBRANCH   1  13
TORSDOF 1
