REMARK  2 active torsions:
REMARK  status: ('A' for Active; 'I' for Inactive)
REMARK    1  A    between atoms: C2_2  and  C3_3 
REMARK    2  A    between atoms: C3_3  and  C4_4 
ROOT
ATOM      1  C4  <0> d          -1.049   3.053   1.351  0.00  0.00     0.007 C 
ATOM      2  H1  <0> d          -0.203   3.574   1.464  0.00  0.00     0.052 H 
ATOM      3  C5  <0> d          -1.760   3.493   0.067  0.00  0.00    -0.055 C 
ATOM      4  C6  <0> d          -0.902   3.118  -1.143  0.00  0.00    -0.064 C 
ATOM      5  C7  <0> d          -0.761   1.597  -1.227  0.00  0.00    -0.059 C 
ATOM      6  C8  <0> d          -0.013   1.086   0.008  0.00  0.00    -0.009 C 
ATOM      7  C9  <0> d          -0.728   1.577   1.247  0.00  0.00     0.131 C 
ATOM      8  O1  <0> d          -1.040   0.812   2.127  0.00  0.00    -0.298 OA
ATOM      9  H7  <0> d          -1.909   4.572   0.086  0.00  0.00     0.034 H 
ATOM     10  H8  <0> d          -2.726   2.993  -0.003  0.00  0.00     0.034 H 
ATOM     11  H9  <0> d           0.085   3.568  -1.040  0.00  0.00     0.033 H 
ATOM     12  H10 <0> d          -1.376   3.489  -2.052  0.00  0.00     0.033 H 
ATOM     13  H11 <0> d          -0.203   1.333  -2.126  0.00  0.00     0.033 H 
ATOM     14  H12 <0> d          -1.751   1.142  -1.267  0.00  0.00     0.033 H 
ATOM     15  H13 <0> d           0.004   0.086  -0.002  0.00  0.00     0.044 H 
ATOM     16  H14 <0> d           1.009   1.466   0.000  0.00  0.00     0.044 H 
ENDROOT
BRANCH   1  17
ATOM     17  C3  <0> d          -1.962   3.297   2.554  0.00  0.00    -0.041 C 
ATOM     18  H5  <0> d          -2.274   4.341   2.567  0.00  0.00     0.040 H 
ATOM     19  H6  <0> d          -2.841   2.657   2.479  0.00  0.00     0.040 H 
BRANCH  17  20
ATOM     20  C2  <0> d          -1.216   2.979   3.824  0.00  0.00    -0.111 C 
ATOM     21  C1  <0> d          -1.121   3.879   4.771  0.00  0.00    -0.125 C 
ATOM     22  H2  <0> d          -1.578   4.849   4.642  0.00  0.00     0.066 H 
ATOM     23  H3  <0> d          -0.587   3.651   5.681  0.00  0.00     0.066 H 
ATOM     24  H4  <0> d          -0.759   2.009   3.954  0.00  0.00     0.075 H 
ENDBRANCH  17  20
ENDBRANCH   1  17
TORSDOF 2
