REMARK  1 active torsions:
REMARK  status: ('A' for Active; 'I' for Inactive)
REMARK    1  A    between atoms: C1_1  and  C2_2 
ROOT
ATOM      1  C2  <0> d           0.002  -0.004   0.002  0.00  0.00    -0.054 C 
ATOM      2  H1  <0> d           0.512  -0.359  -0.894  0.00  0.00     0.039 H 
ATOM      3  C3  <0> d          -1.435  -0.539   0.024  0.00  0.00    -0.059 C 
ATOM      4  C4  <0> d          -1.389  -2.057  -0.165  0.00  0.00    -0.050 C 
ATOM      5  C5  <0> d          -0.396  -2.666   0.780  0.00  0.00    -0.106 C 
ATOM      6  C6  <0> d           0.528  -1.996   1.392  0.00  0.00    -0.106 C 
ATOM      7  C7  <0> d           0.732  -0.515   1.246  0.00  0.00    -0.047 C 
ATOM      8  H5  <0> d          -1.900  -0.303   0.981  0.00  0.00     0.033 H 
ATOM      9  H6  <0> d          -2.007  -0.087  -0.787  0.00  0.00     0.033 H 
ATOM     10  H7  <0> d          -2.377  -2.476   0.030  0.00  0.00     0.038 H 
ATOM     11  H8  <0> d          -1.099  -2.285  -1.191  0.00  0.00     0.038 H 
ATOM     12  H9  <0> d          -0.455  -3.729   0.962  0.00  0.00     0.076 H 
ATOM     13  H10 <0> d           1.196  -2.536   2.046  0.00  0.00     0.076 H 
ATOM     14  H11 <0> d           1.797  -0.301   1.153  0.00  0.00     0.039 H 
ATOM     15  H12 <0> d           0.340  -0.011   2.128  0.00  0.00     0.039 H 
ENDROOT
BRANCH   1  16
ATOM     16  C1  <0> d          -0.019   1.526   0.010  0.00  0.00    -0.073 C 
ATOM     17  H2  <0> d           1.004   1.903   0.003  0.00  0.00     0.028 H 
ATOM     18  H3  <0> d          -0.546   1.887  -0.873  0.00  0.00     0.028 H 
ATOM     19  H4  <0> d          -0.529   1.877   0.907  0.00  0.00     0.028 H 
ENDBRANCH   1  16
TORSDOF 1
