REMARK  5 active torsions:
REMARK  status: ('A' for Active; 'I' for Inactive)
REMARK    1  A    between atoms: C1_1  and  C2_2 
REMARK    2  A    between atoms: C5_5  and  C9_9 
REMARK    3  A    between atoms: C6_6  and  C8_8 
REMARK    4  A    between atoms: C9_9  and  C10_10 
REMARK    5  A    between atoms: C10_10  and  O1_11 
ROOT
ATOM      1  C2  <0> d           1.338   0.164   4.727  0.00  0.00    -0.061 A 
ATOM      2  C3  <0> d           0.258  -0.542   4.230  0.00  0.00    -0.077 A 
ATOM      3  C4  <0> d          -0.411  -0.084   3.110  0.00  0.00    -0.076 A 
ATOM      4  C5  <0> d           0.000   1.080   2.488  0.00  0.00    -0.050 A 
ATOM      5  C6  <0> d           1.083   1.783   2.982  0.00  0.00    -0.055 A 
ATOM      6  C7  <0> d           1.748   1.328   4.105  0.00  0.00    -0.071 A 
ATOM      7  H4  <0> d          -0.062  -1.452   4.715  0.00  0.00     0.084 H 
ATOM      8  H5  <0> d          -1.254  -0.636   2.721  0.00  0.00     0.084 H 
ATOM      9  H6  <0> d           2.592   1.879   4.493  0.00  0.00     0.085 H 
ENDROOT
BRANCH   4  10
ATOM     10  C9  <0> d          -0.729   1.579   1.267  0.00  0.00    -0.021 C 
ATOM     11  H10 <0> d          -0.744   2.669   1.273  0.00  0.00     0.043 H 
ATOM     12  H11 <0> d          -1.751   1.202   1.275  0.00  0.00     0.043 H 
BRANCH  10  13
ATOM     13  C10 <0> d          -0.013   1.086   0.008  0.00  0.00     0.020 C 
ATOM     14  H12 <0> d           0.002  -0.004   0.002  0.00  0.00     0.074 H 
ATOM     15  H13 <0> d           1.010   1.463   0.000  0.00  0.00     0.074 H 
BRANCH  13  16
ATOM     16  O1  <0> d          -0.704   1.559  -1.150  0.00  0.00    -0.401 OA
ATOM     17  H14 <0> d          -0.304   1.284  -1.986  0.00  0.00     0.209 HD
ENDBRANCH  13  16
ENDBRANCH  10  13
ENDBRANCH   4  10
BRANCH   5  18
ATOM     18  C8  <0> d           1.534   3.049   2.300  0.00  0.00    -0.051 C 
ATOM     19  H7  <0> d           1.013   3.902   2.735  0.00  0.00     0.033 H 
ATOM     20  H8  <0> d           2.609   3.171   2.436  0.00  0.00     0.033 H 
ATOM     21  H9  <0> d           1.307   2.989   1.236  0.00  0.00     0.033 H 
ENDBRANCH   5  18
BRANCH   1  22
ATOM     22  C1  <0> d           2.067  -0.336   5.947  0.00  0.00    -0.051 C 
ATOM     23  H1  <0> d           2.875  -1.000   5.641  0.00  0.00     0.033 H 
ATOM     24  H2  <0> d           2.481   0.511   6.496  0.00  0.00     0.033 H 
ATOM     25  H3  <0> d           1.373  -0.880   6.588  0.00  0.00     0.033 H 
ENDBRANCH   1  22
TORSDOF 5
