REMARK  3 active torsions:
REMARK  status: ('A' for Active; 'I' for Inactive)
REMARK    1  A    between atoms: C1_1  and  C2_2 
REMARK    2  A    between atoms: C6_8  and  O2_10 
REMARK    3  A    between atoms: O2_10  and  C7_11 
ROOT
ATOM      1  C2  <0> d           0.002  -0.004   0.002  0.00  0.00     0.044 A 
ATOM      2  N1  <0> d           0.006  -0.657  -1.116  0.00  0.00    -0.267 NA
ATOM      3  C3  <0> d           0.023  -1.991  -1.198  0.00  0.00     0.006 A 
ATOM      4  C4  <0> d           0.040  -2.822  -0.133  0.00  0.00    -0.019 A 
ATOM      5  C5  <0> d           0.038  -2.296   1.179  0.00  0.00     0.185 A 
ATOM      6  O1  <0> d           0.052  -3.016   2.157  0.00  0.00    -0.290 OA
ATOM      7  C6  <0> d           0.025  -0.782   1.302  0.00  0.00     0.136 A 
ATOM      8  H1  <0> d          -0.854  -0.500   1.881  0.00  0.00     0.105 H 
ATOM      9  H5  <0> d           0.025  -2.435  -2.183  0.00  0.00     0.114 H 
ATOM     10  H6  <0> d           0.053  -3.891  -0.285  0.00  0.00     0.091 H 
ENDROOT
BRANCH   7  11
ATOM     11  O2  <0> d           1.181  -0.381   2.040  0.00  0.00    -0.377 OA
BRANCH  11  12
ATOM     12  C7  <0> d           1.023  -0.461   3.458  0.00  0.00     0.005 C 
ATOM     13  H7  <0> d           0.203   0.186   3.769  0.00  0.00     0.066 H 
ATOM     14  H8  <0> d           0.801  -1.490   3.741  0.00  0.00     0.066 H 
ATOM     15  H9  <0> d           1.944  -0.140   3.945  0.00  0.00     0.066 H 
ENDBRANCH  11  12
ENDBRANCH   7  11
BRANCH   1  16
ATOM     16  C1  <0> d          -0.018   1.503   0.010  0.00  0.00    -0.036 C 
ATOM     17  H2  <0> d           1.004   1.880   0.003  0.00  0.00     0.035 H 
ATOM     18  H3  <0> d          -0.545   1.864  -0.873  0.00  0.00     0.035 H 
ATOM     19  H4  <0> d          -0.529   1.854   0.907  0.00  0.00     0.035 H 
ENDBRANCH   1  16
TORSDOF 3
