REMARK  5 active torsions:
REMARK  status: ('A' for Active; 'I' for Inactive)
REMARK    1  A    between atoms: C1_1  and  C2_2 
REMARK    2  A    between atoms: C3_3  and  C4_4 
REMARK    3  A    between atoms: C4_4  and  C5_6 
REMARK    4  A    between atoms: C4_4  and  O3_10 
REMARK    5  A    between atoms: C5_6  and  C6_7 
ROOT
ATOM      1  C4  <0> d           1.286   1.562  -0.002  0.00  0.00     0.061 C 
ATOM      2  H1  <0> d           1.123   2.649   0.020  0.00  0.00     0.090 H 
ENDROOT
BRANCH   1   3
ATOM      3  C3  <0> d           2.052   1.121   1.219  0.00  0.00    -0.079 C 
ATOM      4  C2  <0> d           2.477   2.010   2.082  0.00  0.00    -0.108 C 
ATOM      5  H5  <0> d           2.275   3.078   1.916  0.00  0.00     0.075 H 
ATOM      6  H6  <0> d           2.254   0.052   1.385  0.00  0.00     0.080 H 
BRANCH   4   7
ATOM      7  C1  <0> d           3.243   1.569   3.303  0.00  0.00    -0.060 C 
ATOM      8  H2  <0> d           3.513   2.449   3.904  0.00  0.00     0.032 H 
ATOM      9  H3  <0> d           4.157   1.042   2.992  0.00  0.00     0.032 H 
ATOM     10  H4  <0> d           2.616   0.893   3.904  0.00  0.00     0.032 H 
ENDBRANCH   4   7
ENDBRANCH   1   3
BRANCH   1  11
ATOM     11  C5  <0> d           2.040   1.127  -1.261  0.00  0.00     0.042 C 
ATOM     12  H7  <0> d           3.068   1.515  -1.224  0.00  0.00     0.053 H 
ATOM     13  H8  <0> d           2.063   0.029  -1.313  0.00  0.00     0.053 H 
BRANCH  11  14
ATOM     14  C6  <0> d           1.340   1.673  -2.478  0.00  0.00     0.175 C 
ATOM     15  O1  <0> d           0.341   2.342  -2.353  0.00  0.00    -0.648 OA
ATOM     16  O2  <0> d           1.826   1.418  -3.703  0.00  0.00    -0.648 OA
ENDBRANCH  11  14
ENDBRANCH   1  11
BRANCH   1  17
ATOM     17  O3  <0> d          -0.011   0.963   0.007  0.00  0.00    -0.391 OA
ATOM     18  H9  <0> d          -0.718   1.169  -0.810  0.00  0.00     0.210 HD
ENDBRANCH   1  17
TORSDOF 5
