REMARK  3 active torsions:
REMARK  status: ('A' for Active; 'I' for Inactive)
REMARK    1  A    between atoms: C1_1  and  C2_2 
REMARK    2  A    between atoms: N2_6  and  C5_7 
REMARK    3  A    between atoms: C5_7  and  C6_8 
ROOT
ATOM      1  C2  <0> d           0.002  -0.004   0.002  0.00  0.00     0.102 A 
ATOM      2  N1  <0> d          -0.003  -0.759  -1.062  0.00  0.00    -0.246 NA
ATOM      3  C3  <0> d           0.022  -2.047  -0.691  0.00  0.00     0.019 A 
ATOM      4  C4  <0> d           0.036  -2.093   0.655  0.00  0.00    -0.002 A 
ATOM      5  N2  <0> d           0.023  -0.797   1.095  0.00  0.00    -0.334 N 
ATOM      6  H4  <0> d           0.026  -2.899  -1.355  0.00  0.00     0.117 H 
ATOM      7  H5  <0> d           0.053  -2.981   1.269  0.00  0.00     0.113 H 
ENDROOT
BRANCH   5   8
ATOM      8  C5  <0> d           0.031  -0.353   2.491  0.00  0.00     0.080 C 
ATOM      9  H6  <0> d           0.481  -1.125   3.115  0.00  0.00     0.081 H 
ATOM     10  H7  <0> d           0.609   0.567   2.576  0.00  0.00     0.081 H 
BRANCH   8  11
ATOM     11  C6  <0> d          -1.384  -0.102   2.946  0.00  0.00     0.191 C 
ATOM     12  O1  <0> d          -2.304  -0.276   2.182  0.00  0.00    -0.647 OA
ATOM     13  O2  <0> d          -1.622   0.316   4.199  0.00  0.00    -0.647 OA
ENDBRANCH   8  11
ENDBRANCH   5   8
BRANCH   1  14
ATOM     14  C1  <0> d          -0.018   1.503   0.010  0.00  0.00    -0.021 C 
ATOM     15  H1  <0> d           1.004   1.880   0.003  0.00  0.00     0.037 H 
ATOM     16  H2  <0> d          -0.545   1.864  -0.873  0.00  0.00     0.037 H 
ATOM     17  H3  <0> d          -0.529   1.854   0.907  0.00  0.00     0.037 H 
ENDBRANCH   1  14
TORSDOF 3
