REMARK  4 active torsions:
REMARK  status: ('A' for Active; 'I' for Inactive)
REMARK    1  A    between atoms: C1_1  and  N1_2 
REMARK    2  A    between atoms: N1_2  and  C2_3 
REMARK    3  A    between atoms: N1_2  and  C3_4 
REMARK    4  A    between atoms: C5_6  and  N4_11 
ROOT
ATOM      1  C3  <0> d           1.177   3.338   0.235  0.00  0.00     0.132 A 
ATOM      2  C4  <0> d           0.028   4.024   0.618  0.00  0.00     0.003 A 
ATOM      3  C5  <0> d          -1.139   3.295   0.826  0.00  0.00     0.105 A 
ATOM      4  N2  <0> d          -1.119   1.975   0.650  0.00  0.00    -0.305 N 
ATOM      5  C6  <0> d          -0.008   1.358   0.285  0.00  0.00     0.281 A 
ATOM      6  N3  <0> d           1.121   2.017   0.082  0.00  0.00    -0.189 NA
ATOM      7  O1  <0> d          -0.025   0.013   0.119  0.00  0.00    -0.149 OA
ATOM      8  H7  <0> d           0.041   5.096   0.750  0.00  0.00     0.095 H 
ATOM      9  H10 <0> d          -2.041   1.398   0.811  0.00  0.00     0.171 HD
ENDROOT
BRANCH   1  10
ATOM     10  N1  <0> d           2.362   4.022   0.016  0.00  0.00    -0.374 N 
BRANCH  10  11
ATOM     11  C1  <0> d           2.375   5.487   0.022  0.00  0.00    -0.018 C 
ATOM     12  H1  <0> d           1.360   5.861   0.217  0.00  0.00     0.056 H 
ATOM     13  H2  <0> d           2.722   5.855  -0.955  0.00  0.00     0.056 H 
ATOM     14  H3  <0> d           3.055   5.843   0.811  0.00  0.00     0.056 H 
ENDBRANCH  10  11
BRANCH  10  15
ATOM     15  C2  <0> d           3.602   3.279  -0.223  0.00  0.00    -0.018 C 
ATOM     16  H4  <0> d           3.395   2.199  -0.191  0.00  0.00     0.056 H 
ATOM     17  H5  <0> d           4.338   3.535   0.554  0.00  0.00     0.056 H 
ATOM     18  H6  <0> d           4.005   3.546  -1.212  0.00  0.00     0.056 H 
ENDBRANCH  10  15
ENDBRANCH   1  10
BRANCH   3  19
ATOM     19  N4  <0> d          -2.307   3.934   1.214  0.00  0.00    -0.385 N 
ATOM     20  H9  <0> d          -3.225   3.350   1.377  0.00  0.00     0.157 HD
ATOM     21  H8  <0> d          -2.316   5.024   1.357  0.00  0.00     0.157 HD
ENDBRANCH   3  19
TORSDOF 4
