REMARK  3 active torsions:
REMARK  status: ('A' for Active; 'I' for Inactive)
REMARK    1  A    between atoms: C1_1  and  C2_2 
REMARK    2  A    between atoms: C5_6  and  O1_8 
REMARK    3  A    between atoms: O1_8  and  C6_9 
ROOT
ATOM      1  C2  <0> d           0.002  -0.004   0.002  0.00  0.00     0.038 A 
ATOM      2  C3  <0> d           0.006  -0.699  -1.196  0.00  0.00    -0.020 A 
ATOM      3  C4  <0> d           0.025  -2.086  -1.158  0.00  0.00     0.132 A 
ATOM      4  N1  <0> d           0.040  -2.698   0.016  0.00  0.00    -0.195 NA
ATOM      5  C5  <0> d           0.035  -2.003   1.141  0.00  0.00     0.269 A 
ATOM      6  N2  <0> d           0.022  -0.680   1.140  0.00  0.00    -0.212 NA
ATOM      7 Cl1  <0> d           0.031  -3.006  -2.630  0.00  0.00    -0.062 Cl
ATOM      8  H4  <0> d          -0.006  -0.172  -2.139  0.00  0.00     0.091 H 
ENDROOT
BRANCH   5   9
ATOM      9  O1  <0> d           0.050  -2.662   2.325  0.00  0.00    -0.324 OA
BRANCH   9  10
ATOM     10  C6  <0> d           0.070  -4.090   2.272  0.00  0.00     0.013 C 
ATOM     11  H5  <0> d          -0.818  -4.446   1.750  0.00  0.00     0.067 H 
ATOM     12  H6  <0> d           0.962  -4.422   1.741  0.00  0.00     0.067 H 
ATOM     13  H7  <0> d           0.080  -4.491   3.286  0.00  0.00     0.067 H 
ENDBRANCH   9  10
ENDBRANCH   5   9
BRANCH   1  14
ATOM     14  C1  <0> d          -0.018   1.503   0.010  0.00  0.00    -0.035 C 
ATOM     15  H1  <0> d           1.004   1.880   0.003  0.00  0.00     0.035 H 
ATOM     16  H2  <0> d          -0.545   1.864  -0.873  0.00  0.00     0.035 H 
ATOM     17  H3  <0> d          -0.529   1.854   0.907  0.00  0.00     0.035 H 
ENDBRANCH   1  14
TORSDOF 3
