REMARK  4 active torsions:
REMARK  status: ('A' for Active; 'I' for Inactive)
REMARK    1  A    between atoms: C1_1  and  C2_2 
REMARK    2  A    between atoms: C2_2  and  C3_4 
REMARK    3  A    between atoms: C2_2  and  O2_7 
REMARK    4  A    between atoms: C3_4  and  C4_6 
ROOT
ATOM      1  C2  <0> d          -1.329   1.939   0.019  0.00  0.00     0.089 C 
ATOM      2  H1  <0> d          -1.265   2.729   0.629  0.00  0.00     0.094 H 
ENDROOT
BRANCH   1   3
ATOM      3  C1  <0> d          -1.659   2.414  -1.398  0.00  0.00    -0.046 C 
ATOM      4  H2  <0> d          -1.729   1.554  -2.062  0.00  0.00     0.031 H 
ATOM      5  H3  <0> d          -2.610   2.946  -1.390  0.00  0.00     0.031 H 
ATOM      6  H4  <0> d          -0.872   3.082  -1.749  0.00  0.00     0.031 H 
ENDBRANCH   1   3
BRANCH   1   7
ATOM      7  C3  <0> d          -0.014   1.203   0.009  0.00  0.00     0.151 C 
ATOM      8  O1  <0> d           0.002  -0.004   0.002  0.00  0.00    -0.296 OA
BRANCH   7   9
ATOM      9  C4  <0> d           1.280   1.975   0.000  0.00  0.00    -0.018 C 
ATOM     10  H5  <0> d           2.049   1.335  -0.010  0.00  0.00     0.037 H 
ATOM     11  H6  <0> d           1.321   2.607  -0.887  0.00  0.00     0.037 H 
ATOM     12  H7  <0> d           1.338   2.597   0.893  0.00  0.00     0.037 H 
ENDBRANCH   7   9
ENDBRANCH   1   7
BRANCH   1  13
ATOM     13  O2  <0> d          -2.361   1.064   0.480  0.00  0.00    -0.388 OA
ATOM     14  H8  <0> d          -2.480   0.275  -0.066  0.00  0.00     0.210 HD
ENDBRANCH   1  13
TORSDOF 4
