REMARK  1 active torsions:
REMARK  status: ('A' for Active; 'I' for Inactive)
REMARK    1  A    between atoms: C1_1  and  C2_2 
ROOT
ATOM      1  C2  <0> d          -1.224   2.416   0.021  0.00  0.00     0.034 A 
ATOM      2  C3  <0> d          -1.192   3.809   0.033  0.00  0.00     0.210 A 
ATOM      3  N1  <0> d          -0.016   4.426   0.037  0.00  0.00    -0.215 NA
ATOM      4  C4  <0> d           1.107   3.736   0.022  0.00  0.00     0.091 A 
ATOM      5  N2  <0> d           1.113   2.419   0.010  0.00  0.00    -0.229 NA
ATOM      6  C5  <0> d          -0.021   1.732   0.012  0.00  0.00     0.137 A 
ATOM      7 Cl1  <0> d           0.002  -0.004   0.002  0.00  0.00    -0.062 Cl
ATOM      8  O1  <0> d          -2.344   4.524   0.048  0.00  0.00    -0.170 OA
ATOM      9  H4  <0> d           1.971   4.240   0.021  0.00  0.00     0.146 H 
ENDROOT
BRANCH   1  10
ATOM     10  C1  <0> d          -2.535   1.674   0.018  0.00  0.00    -0.044 C 
ATOM     11  H1  <0> d          -2.344   0.591   0.008  0.00  0.00     0.033 H 
ATOM     12  H2  <0> d          -3.113   1.952  -0.876  0.00  0.00     0.033 H 
ATOM     13  H3  <0> d          -3.107   1.937   0.920  0.00  0.00     0.033 H 
ENDBRANCH   1  10
TORSDOF 1
