REMARK  2 active torsions:
REMARK  status: ('A' for Active; 'I' for Inactive)
REMARK    1  A    between atoms: C1_1  and  C2_2 
REMARK    2  A    between atoms: N1_7  and  C6_9 
ROOT
ATOM      1  C2  <0> d           1.435  -0.399   0.422  0.00  0.00    -0.034 C 
ATOM      2  H1  <0> d           1.497  -0.555   1.499  0.00  0.00     0.042 H 
ATOM      3  C3  <0> d           2.244   0.848  -0.005  0.00  0.00     0.014 C 
ATOM      4  C4  <0> d           1.228   1.969   0.001  0.00  0.00     0.219 C 
ATOM      5  O1  <0> d           1.498   3.151  -0.003  0.00  0.00    -0.273 OA
ATOM      6  N1  <0> d          -0.018   1.463   0.010  0.00  0.00    -0.356 N 
ATOM      7  C5  <0> d           0.002  -0.004   0.002  0.00  0.00     0.001 C 
ATOM      8  H5  <0> d           3.039   1.051   0.713  0.00  0.00     0.047 H 
ATOM      9  H6  <0> d           2.658   0.711  -1.004  0.00  0.00     0.047 H 
ATOM     10  H7  <0> d          -0.722  -0.395   0.717  0.00  0.00     0.065 H 
ATOM     11  H8  <0> d          -0.216  -0.379  -0.998  0.00  0.00     0.065 H 
ENDROOT
BRANCH   1  12
ATOM     12  C1  <0> d           1.905  -1.643  -0.336  0.00  0.00    -0.071 C 
ATOM     13  H2  <0> d           1.897  -1.440  -1.407  0.00  0.00     0.028 H 
ATOM     14  H3  <0> d           2.916  -1.899  -0.022  0.00  0.00     0.028 H 
ATOM     15  H4  <0> d           1.235  -2.475  -0.119  0.00  0.00     0.028 H 
ENDBRANCH   1  12
BRANCH   6  16
ATOM     16  C6  <0> d          -1.238   2.273   0.021  0.00  0.00    -0.016 C 
ATOM     17  H9  <0> d          -1.536   2.469   1.051  0.00  0.00     0.056 H 
ATOM     18  H10 <0> d          -1.052   3.219  -0.489  0.00  0.00     0.056 H 
ATOM     19  H11 <0> d          -2.036   1.736  -0.492  0.00  0.00     0.056 H 
ENDBRANCH   6  16
TORSDOF 2
