REMARK  1 active torsions:
REMARK  status: ('A' for Active; 'I' for Inactive)
REMARK    1  A    between atoms: C3_6  and  N6_11 
ROOT
ATOM      1  C1  <0> d          -0.013   1.076   0.008  0.00  0.00     0.126 A 
ATOM      2  N1  <0> d           1.063   1.859   0.002  0.00  0.00    -0.051 NA
ATOM      3  C2  <0> d           0.694   3.125   0.012  0.00  0.00     0.772 A 
ATOM      4  N2  <0> d           1.408   4.296   0.012  0.00  0.00     0.048 NA
ATOM      5  N3  <0> d           0.749   5.531   0.025  0.00  0.00    -0.110 NA
ATOM      6  C3  <0> d          -0.560   5.578   0.038  0.00  0.00     0.215 A 
ATOM      7  C4  <0> d          -1.324   4.327   0.038  0.00  0.00     0.331 A 
ATOM      8  O1  <0> d          -2.541   4.350   0.051  0.00  0.00    -0.261 OA
ATOM      9  N4  <0> d          -0.667   3.153   0.025  0.00  0.00    -0.015 N 
ATOM     10  N5  <0> d          -1.091   1.817   0.017  0.00  0.00    -0.142 NA
ATOM     11  H1  <0> d           0.002  -0.004   0.002  0.00  0.00     0.150 H 
ENDROOT
BRANCH   6  12
ATOM     12  N6  <0> d          -1.221   6.808   0.052  0.00  0.00    -0.378 N 
ATOM     13  H2  <0> d          -2.321   6.842   0.063  0.00  0.00     0.158 HD
ATOM     14  H3  <0> d          -0.643   7.744   0.052  0.00  0.00     0.158 HD
ENDBRANCH   6  12
TORSDOF 1
