REMARK  3 active torsions:
REMARK  status: ('A' for Active; 'I' for Inactive)
REMARK    1  A    between atoms: C1_1  and  C2_2 
REMARK    2  A    between atoms: C4_4  and  O1_10 
REMARK    3  A    between atoms: C7_7  and  C8_8 
ROOT
ATOM      1  C2  <0> d          -0.058   4.500   0.028  0.00  0.00    -0.053 A 
ATOM      2  C3  <0> d          -1.248   3.797   0.035  0.00  0.00    -0.043 A 
ATOM      3  C4  <0> d          -1.233   2.410   0.021  0.00  0.00     0.087 A 
ATOM      4  C5  <0> d          -0.021   1.732   0.012  0.00  0.00     0.067 A 
ATOM      5  C6  <0> d           1.165   2.440   0.004  0.00  0.00    -0.053 A 
ATOM      6  C7  <0> d           1.147   3.823   0.012  0.00  0.00    -0.054 A 
ATOM      7 Cl1  <0> d           0.002  -0.004   0.002  0.00  0.00    -0.081 Cl
ATOM      8  H4  <0> d          -2.189   4.327   0.048  0.00  0.00     0.088 H 
ATOM      9  H5  <0> d           2.108   1.913  -0.008  0.00  0.00     0.087 H 
ENDROOT
BRANCH   1  10
ATOM     10  C1  <0> d          -0.074   6.007   0.037  0.00  0.00    -0.051 C 
ATOM     11  H1  <0> d          -0.088   6.376  -0.988  0.00  0.00     0.033 H 
ATOM     12  H2  <0> d          -0.963   6.357   0.562  0.00  0.00     0.033 H 
ATOM     13  H3  <0> d           0.817   6.377   0.545  0.00  0.00     0.033 H 
ENDBRANCH   1  10
BRANCH   6  14
ATOM     14  C8  <0> d           2.442   4.592   0.004  0.00  0.00    -0.051 C 
ATOM     15  H6  <0> d           2.745   4.784  -1.025  0.00  0.00     0.033 H 
ATOM     16  H7  <0> d           2.305   5.540   0.525  0.00  0.00     0.033 H 
ATOM     17  H8  <0> d           3.214   4.010   0.508  0.00  0.00     0.033 H 
ENDBRANCH   6  14
BRANCH   3  18
ATOM     18  O1  <0> d          -2.402   1.717   0.022  0.00  0.00    -0.359 OA
ATOM     19  H9  <0> d          -2.736   1.511   0.906  0.00  0.00     0.217 HD
ENDBRANCH   3  18
TORSDOF 3
