REMARK  8 active torsions:
REMARK  status: ('A' for Active; 'I' for Inactive)
REMARK    1  A    between atoms: C1_1  and  C2_2 
REMARK    2  A    between atoms: C2_2  and  C3_4 
REMARK    3  A    between atoms: C2_2  and  O2_6 
REMARK    4  A    between atoms: C3_4  and  O1_5 
REMARK    5  A    between atoms: O2_6  and  C4_7 
REMARK    6  A    between atoms: C4_7  and  C5_8 
REMARK    7  A    between atoms: C5_8  and  C6_10 
REMARK    8  A    between atoms: C5_8  and  O3_11 
ROOT
ATOM      1  O2  <0> d           0.671  -0.465  -1.174  0.00  0.00    -0.382 OA
ENDROOT
BRANCH   1   2
ATOM      2  C2  <0> d           0.002  -0.004   0.002  0.00  0.00     0.055 C 
ATOM      3  H1  <0> d           0.529  -0.365   0.885  0.00  0.00     0.086 H 
BRANCH   2   4
ATOM      4  C1  <0> d          -0.019   1.526   0.010  0.00  0.00    -0.050 C 
ATOM      5  H3  <0> d           1.004   1.903   0.003  0.00  0.00     0.031 H 
ATOM      6  H4  <0> d          -0.546   1.887  -0.873  0.00  0.00     0.031 H 
ATOM      7  H5  <0> d          -0.529   1.877   0.907  0.00  0.00     0.031 H 
ENDBRANCH   2   4
BRANCH   2   8
ATOM      8  C3  <0> d          -1.433  -0.534   0.013  0.00  0.00     0.040 C 
ATOM      9  H6  <0> d          -1.421  -1.619  -0.083  0.00  0.00     0.077 H 
ATOM     10  H7  <0> d          -1.916  -0.257   0.950  0.00  0.00     0.077 H 
BRANCH   8  11
ATOM     11  O1  <0> d          -2.158   0.032  -1.081  0.00  0.00    -0.398 OA
ATOM     12  H8  <0> d          -3.078  -0.260  -1.136  0.00  0.00     0.209 HD
ENDBRANCH   8  11
ENDBRANCH   2   8
ENDBRANCH   1   2
BRANCH   1  13
ATOM     13  C4  <0> d           2.080  -0.640  -1.010  0.00  0.00     0.043 C 
ATOM     14  H9  <0> d           2.534   0.311  -0.733  0.00  0.00     0.078 H 
ATOM     15  H10 <0> d           2.266  -1.374  -0.226  0.00  0.00     0.078 H 
BRANCH  13  16
ATOM     16  C5  <0> d           2.688  -1.133  -2.324  0.00  0.00     0.052 C 
ATOM     17  H2  <0> d           2.172  -2.038  -2.647  0.00  0.00     0.085 H 
BRANCH  16  18
ATOM     18  C6  <0> d           4.173  -1.440  -2.115  0.00  0.00    -0.051 C 
ATOM     19  H11 <0> d           4.280  -2.212  -1.353  0.00  0.00     0.031 H 
ATOM     20  H12 <0> d           4.606  -1.792  -3.052  0.00  0.00     0.031 H 
ATOM     21  H13 <0> d           4.689  -0.536  -1.792  0.00  0.00     0.031 H 
ENDBRANCH  16  18
BRANCH  16  22
ATOM     22  O3  <0> d           2.547  -0.122  -3.324  0.00  0.00    -0.394 OA
ATOM     23  H14 <0> d           2.983   0.713  -3.103  0.00  0.00     0.210 HD
ENDBRANCH  16  22
ENDBRANCH  13  16
ENDBRANCH   1  13
TORSDOF 8
