REMARK  1 active torsions:
REMARK  status: ('A' for Active; 'I' for Inactive)
REMARK    1  A    between atoms: C2_2  and  C5_6 
ROOT
ATOM      1  C1  <0> d          -0.019   1.534   0.011  0.00  0.00    -0.024 C 
ATOM      2  C2  <0> d           1.518   1.476  -0.004  0.00  0.00     0.035 C 
ATOM      3  C3  <0> d           1.381   0.097  -0.670  0.00  0.00    -0.024 C 
ATOM      4  C4  <0> d           0.002  -0.004   0.002  0.00  0.00     0.081 C 
ATOM      5  F1  <0> d          -0.980  -0.573  -0.816  0.00  0.00    -0.249 F 
ATOM      6  H1  <0> d          -0.431   1.960   0.925  0.00  0.00     0.038 H 
ATOM      7  H2  <0> d          -0.448   1.969  -0.892  0.00  0.00     0.038 H 
ATOM      8  H3  <0> d           1.963   1.439   0.990  0.00  0.00     0.057 H 
ATOM      9  H4  <0> d           1.335   0.140  -1.758  0.00  0.00     0.038 H 
ATOM     10  H5  <0> d           2.100  -0.637  -0.305  0.00  0.00     0.038 H 
ATOM     11  H6  <0> d           0.033  -0.446   0.998  0.00  0.00     0.091 H 
ENDROOT
BRANCH   2  12
ATOM     12  C5  <0> d           2.152   2.515  -0.893  0.00  0.00     0.177 C 
ATOM     13  O1  <0> d           3.163   3.092  -0.530  0.00  0.00    -0.648 OA
ATOM     14  O2  <0> d           1.654   2.779  -1.974  0.00  0.00    -0.648 OA
ENDBRANCH   2  12
TORSDOF 1
