REMARK  2 active torsions:
REMARK  status: ('A' for Active; 'I' for Inactive)
REMARK    1  A    between atoms: C1_1  and  C2_2 
REMARK    2  A    between atoms: N2_6  and  C5_7 
ROOT
ATOM      1  C5  <0> d           1.444   4.379   0.011  0.00  0.00     0.095 C 
ATOM      2  C6  <0> d           1.715   4.786  -1.377  0.00  0.00     0.081 C 
ATOM      3  N3  <0> d           1.924   5.100  -2.449  0.00  0.00    -0.195 NA
ATOM      4  H6  <0> d           0.935   5.189   0.534  0.00  0.00     0.089 H 
ATOM      5  H7  <0> d           2.384   4.155   0.515  0.00  0.00     0.089 H 
ENDROOT
BRANCH   1   6
ATOM      6  N2  <0> d           0.593   3.186   0.013  0.00  0.00    -0.262 N 
ATOM      7  C2  <0> d          -0.756   3.173   0.025  0.00  0.00     0.029 A 
ATOM      8  C3  <0> d          -1.157   1.881   0.017  0.00  0.00    -0.041 A 
ATOM      9  C4  <0> d          -0.013   1.076   0.008  0.00  0.00     0.024 A 
ATOM     10  H4  <0> d          -2.179   1.532   0.019  0.00  0.00     0.088 H 
ATOM     11  N1  <0> d           1.037   1.857   0.002  0.00  0.00    -0.184 NA
ATOM     12  H5  <0> d           0.002  -0.004   0.002  0.00  0.00     0.117 H 
BRANCH   7  13
ATOM     13  C1  <0> d          -1.656   4.382   0.040  0.00  0.00    -0.036 C 
ATOM     14  H1  <0> d          -1.883   4.678  -0.984  0.00  0.00     0.035 H 
ATOM     15  H2  <0> d          -2.582   4.139   0.561  0.00  0.00     0.035 H 
ATOM     16  H3  <0> d          -1.155   5.202   0.553  0.00  0.00     0.035 H 
ENDBRANCH   7  13
ENDBRANCH   1   6
TORSDOF 2
