REMARK  7 active torsions:
REMARK  status: ('A' for Active; 'I' for Inactive)
REMARK    1  A    between atoms: C1_1  and  C2_2 
REMARK    2  A    between atoms: C2_2  and  C3_3 
REMARK    3  A    between atoms: C2_2  and  C4_4 
REMARK    4  A    between atoms: C4_4  and  C5_5 
REMARK    5  A    between atoms: C5_5  and  C6_6 
REMARK    6  A    between atoms: C6_6  and  C7_7 
REMARK    7  A    between atoms: C7_7  and  C8_8 
REMARK       I    between atoms: C8_8  and  N1_10 
ROOT
ATOM      1  C5  <0> d          -2.678   5.151   0.043  0.00  0.00    -0.064 C 
ATOM      2  H10 <0> d          -2.165   5.516   0.932  0.00  0.00     0.033 H 
ATOM      3  H11 <0> d          -2.173   5.526  -0.848  0.00  0.00     0.033 H 
ENDROOT
BRANCH   1   4
ATOM      4  C4  <0> d          -4.127   5.641   0.052  0.00  0.00    -0.062 C 
ATOM      5  H8  <0> d          -4.640   5.276  -0.837  0.00  0.00     0.033 H 
ATOM      6  H9  <0> d          -4.632   5.266   0.943  0.00  0.00     0.033 H 
BRANCH   4   7
ATOM      7  C2  <0> d          -4.148   7.171   0.061  0.00  0.00    -0.061 C 
ATOM      8  H4  <0> d          -3.567   7.547  -0.782  0.00  0.00     0.038 H 
BRANCH   7   9
ATOM      9  C1  <0> d          -5.592   7.662  -0.056  0.00  0.00    -0.073 C 
ATOM     10  H1  <0> d          -6.173   7.286   0.787  0.00  0.00     0.028 H 
ATOM     11  H2  <0> d          -5.607   8.752  -0.050  0.00  0.00     0.028 H 
ATOM     12  H3  <0> d          -6.026   7.298  -0.987  0.00  0.00     0.028 H 
ENDBRANCH   7   9
BRANCH   7  13
ATOM     13  C3  <0> d          -3.539   7.682   1.368  0.00  0.00    -0.073 C 
ATOM     14  H5  <0> d          -2.510   7.332   1.451  0.00  0.00     0.028 H 
ATOM     15  H6  <0> d          -3.554   8.772   1.374  0.00  0.00     0.028 H 
ATOM     16  H7  <0> d          -4.119   7.306   2.211  0.00  0.00     0.028 H 
ENDBRANCH   7  13
ENDBRANCH   4   7
ENDBRANCH   1   4
BRANCH   1  17
ATOM     17  C6  <0> d          -2.657   3.621   0.034  0.00  0.00    -0.057 C 
ATOM     18  H12 <0> d          -3.170   3.256  -0.855  0.00  0.00     0.033 H 
ATOM     19  H13 <0> d          -3.162   3.246   0.925  0.00  0.00     0.033 H 
BRANCH  17  20
ATOM     20  C7  <0> d          -1.208   3.131   0.025  0.00  0.00     0.009 C 
ATOM     21  H14 <0> d          -0.695   3.496   0.914  0.00  0.00     0.047 H 
ATOM     22  H15 <0> d          -0.703   3.506  -0.866  0.00  0.00     0.047 H 
BRANCH  20  23
ATOM     23  C8  <0> d          -1.187   1.624   0.017  0.00  0.00     0.215 C 
ATOM     24  O1  <0> d          -2.229   1.003   0.018  0.00  0.00    -0.274 OA
ATOM     25  N1  <0> d          -0.011   0.966   0.007  0.00  0.00    -0.370 N 
ATOM     26  H16 <0> d           0.002  -0.004   0.002  0.00  0.00     0.159 HD
ATOM     27  H17 <0> d           0.822   1.462   0.002  0.00  0.00     0.159 HD
ENDBRANCH  20  23
ENDBRANCH  17  20
ENDBRANCH   1  17
TORSDOF 7
