REMARK  3 active torsions:
REMARK  status: ('A' for Active; 'I' for Inactive)
REMARK    1  A    between atoms: C1_1  and  C2_2 
REMARK    2  A    between atoms: C6_6  and  N1_9 
REMARK    3  A    between atoms: C7_7  and  O1_8 
ROOT
ATOM      1  C2  <0> d          -1.254   3.789   0.034  0.00  0.00    -0.025 A 
ATOM      2  C3  <0> d          -1.229   2.406   0.021  0.00  0.00    -0.053 A 
ATOM      3  C4  <0> d          -0.021   1.732   0.012  0.00  0.00     0.036 A 
ATOM      4  C5  <0> d           1.168   2.438   0.004  0.00  0.00    -0.034 A 
ATOM      5  C6  <0> d           1.150   3.825   0.011  0.00  0.00     0.061 A 
ATOM      6  C7  <0> d          -0.068   4.503   0.026  0.00  0.00     0.097 A 
ATOM      7 Cl1  <0> d           0.002  -0.004   0.002  0.00  0.00    -0.084 Cl
ATOM      8  H4  <0> d          -2.156   1.851   0.022  0.00  0.00     0.087 H 
ATOM      9  H5  <0> d           2.110   1.910  -0.007  0.00  0.00     0.089 H 
ENDROOT
BRANCH   1  10
ATOM     10  C1  <0> d          -2.572   4.519   0.050  0.00  0.00    -0.049 C 
ATOM     11  H1  <0> d          -3.395   3.789   0.053  0.00  0.00     0.033 H 
ATOM     12  H2  <0> d          -2.650   5.154  -0.845  0.00  0.00     0.033 H 
ATOM     13  H3  <0> d          -2.633   5.145   0.951  0.00  0.00     0.033 H 
ENDBRANCH   1  10
BRANCH   6  14
ATOM     14  O1  <0> d          -0.091   5.863   0.034  0.00  0.00    -0.358 OA
ATOM     15  H6  <0> d           0.852   6.429   0.028  0.00  0.00     0.217 HD
ENDBRANCH   6  14
BRANCH   5  16
ATOM     16  N1  <0> d           2.352   4.542   0.003  0.00  0.00    -0.397 N 
ATOM     17  H7  <0> d           2.336   5.642   0.009  0.00  0.00     0.156 HD
ATOM     18  H8  <0> d           3.312   4.006  -0.009  0.00  0.00     0.156 HD
ENDBRANCH   5  16
TORSDOF 3
