REMARK  7 active torsions:
REMARK  status: ('A' for Active; 'I' for Inactive)
REMARK    1  A    between atoms: C1_1  and  C2_2 
REMARK    2  A    between atoms: C2_2  and  C3_3 
REMARK    3  A    between atoms: C3_3  and  C4_4 
REMARK    4  A    between atoms: C3_3  and  C6_6 
REMARK    5  A    between atoms: C4_4  and  C5_5 
REMARK    6  A    between atoms: C6_6  and  C7_8 
REMARK    7  A    between atoms: C6_6  and  O1_9 
ROOT
ATOM      1  C3  <0> d           0.099   0.267   1.008  0.00  0.00    -0.030 C 
ATOM      2  H7  <0> d           0.399  -0.755   1.239  0.00  0.00     0.043 H 
ENDROOT
BRANCH   1   3
ATOM      3  C2  <0> d           1.345   1.140   0.847  0.00  0.00    -0.063 C 
ATOM      4  H5  <0> d           1.058   2.114   0.450  0.00  0.00     0.033 H 
ATOM      5  H6  <0> d           1.826   1.270   1.816  0.00  0.00     0.033 H 
BRANCH   3   6
ATOM      6  C1  <0> d           2.320   0.464  -0.120  0.00  0.00    -0.076 C 
ATOM      7  H2  <0> d           3.332   0.814   0.081  0.00  0.00     0.027 H 
ATOM      8  H3  <0> d           2.276  -0.617   0.017  0.00  0.00     0.027 H 
ATOM      9  H4  <0> d           2.046   0.712  -1.145  0.00  0.00     0.027 H 
ENDBRANCH   3   6
ENDBRANCH   1   3
BRANCH   1  10
ATOM     10  C4  <0> d          -0.706   0.281  -0.292  0.00  0.00    -0.063 C 
ATOM     11  H8  <0> d          -1.716  -0.081  -0.099  0.00  0.00     0.033 H 
ATOM     12  H9  <0> d          -0.753   1.299  -0.680  0.00  0.00     0.033 H 
BRANCH  10  13
ATOM     13  C5  <0> d          -0.028  -0.625  -1.322  0.00  0.00    -0.076 C 
ATOM     14  H10 <0> d          -0.764  -0.956  -2.055  0.00  0.00     0.027 H 
ATOM     15  H11 <0> d           0.765  -0.073  -1.826  0.00  0.00     0.027 H 
ATOM     16  H12 <0> d           0.398  -1.493  -0.817  0.00  0.00     0.027 H 
ENDBRANCH  10  13
ENDBRANCH   1  10
BRANCH   1  17
ATOM     17  C6  <0> d          -0.763   0.815   2.148  0.00  0.00     0.035 C 
ATOM     18  H1  <0> d          -1.692   0.248   2.205  0.00  0.00     0.082 H 
BRANCH  17  19
ATOM     19  C7  <0> d          -0.003   0.685   3.470  0.00  0.00    -0.052 C 
ATOM     20  H13 <0> d           0.869   1.339   3.453  0.00  0.00     0.030 H 
ATOM     21  H14 <0> d          -0.656   0.972   4.294  0.00  0.00     0.030 H 
ATOM     22  H15 <0> d           0.319  -0.347   3.604  0.00  0.00     0.030 H 
ENDBRANCH  17  19
BRANCH  17  23
ATOM     23  O1  <0> d          -1.059   2.191   1.902  0.00  0.00    -0.396 OA
ATOM     24  H16 <0> d          -0.277   2.756   1.838  0.00  0.00     0.210 HD
ENDBRANCH  17  23
ENDBRANCH   1  17
TORSDOF 7
