REMARK  1 active torsions:
REMARK  status: ('A' for Active; 'I' for Inactive)
REMARK    1  A    between atoms: C1_1  and  C2_2 
ROOT
ATOM      1  C2  <0> d           0.002  -0.004   0.002  0.00  0.00     0.000 C 
ATOM      2  H1  <0> d           0.460  -0.327  -0.826  0.00  0.00     0.051 H 
ATOM      3  C3  <0> d           0.734  -0.528   1.255  0.00  0.00    -0.055 C 
ATOM      4  C4  <0> d          -0.075  -1.790   1.653  0.00  0.00    -0.058 C 
ATOM      5  C5  <0> d          -1.529  -1.365   1.333  0.00  0.00    -0.009 C 
ATOM      6  C6  <0> d          -1.413  -0.541   0.062  0.00  0.00     0.130 C 
ATOM      7  O1  <0> d          -2.286  -0.350  -0.750  0.00  0.00    -0.298 OA
ATOM      8  H5  <0> d           1.763  -0.793   1.015  0.00  0.00     0.034 H 
ATOM      9  H6  <0> d           0.704   0.213   2.054  0.00  0.00     0.034 H 
ATOM     10  H7  <0> d           0.221  -2.646   1.047  0.00  0.00     0.033 H 
ATOM     11  H8  <0> d           0.042  -2.006   2.715  0.00  0.00     0.033 H 
ATOM     12  H9  <0> d          -2.095  -2.180   1.210  0.00  0.00     0.044 H 
ATOM     13  H10 <0> d          -1.936  -0.759   2.143  0.00  0.00     0.044 H 
ENDROOT
BRANCH   1  14
ATOM     14  C1  <0> d          -0.019   1.526   0.010  0.00  0.00    -0.066 C 
ATOM     15  H2  <0> d           1.004   1.903   0.003  0.00  0.00     0.028 H 
ATOM     16  H3  <0> d          -0.546   1.887  -0.873  0.00  0.00     0.028 H 
ATOM     17  H4  <0> d          -0.529   1.877   0.907  0.00  0.00     0.028 H 
ENDBRANCH   1  14
TORSDOF 1
