REMARK  1 active torsions:
REMARK  status: ('A' for Active; 'I' for Inactive)
REMARK    1  A    between atoms: C1_1  and  C2_2 
ROOT
ATOM      1  C2  <0> d           0.002  -0.004   0.002  0.00  0.00    -0.040 A 
ATOM      2  C3  <0> d           0.006  -0.688  -1.198  0.00  0.00    -0.076 A 
ATOM      3  C4  <0> d           0.024  -2.072  -1.216  0.00  0.00    -0.081 A 
ATOM      4  C5  <0> d           0.040  -2.788  -0.035  0.00  0.00    -0.061 A 
ATOM      5  C6  <0> d           0.036  -2.116   1.186  0.00  0.00     0.065 A 
ATOM      6  C7  <0> d           0.023  -0.708   1.205  0.00  0.00     0.071 A 
ATOM      7  C8  <0> d           0.025  -0.003   2.452  0.00  0.00     0.101 C 
ATOM      8  N1  <0> d           0.027   0.556   3.441  0.00  0.00    -0.191 NA
ATOM      9  C9  <0> d           0.052  -2.853   2.414  0.00  0.00     0.101 C 
ATOM     10  N2  <0> d           0.064  -3.438   3.388  0.00  0.00    -0.191 NA
ATOM     11  H4  <0> d          -0.006  -0.139  -2.128  0.00  0.00     0.084 H 
ATOM     12  H5  <0> d           0.027  -2.596  -2.160  0.00  0.00     0.083 H 
ATOM     13  H6  <0> d           0.054  -3.867  -0.058  0.00  0.00     0.085 H 
ENDROOT
BRANCH   1  14
ATOM     14  C1  <0> d          -0.018   1.503   0.010  0.00  0.00    -0.050 C 
ATOM     15  H1  <0> d           1.004   1.880   0.003  0.00  0.00     0.033 H 
ATOM     16  H2  <0> d          -0.545   1.864  -0.873  0.00  0.00     0.033 H 
ATOM     17  H3  <0> d          -0.529   1.854   0.907  0.00  0.00     0.033 H 
ENDBRANCH   1  14
TORSDOF 1
