REMARK  0 active torsions:
REMARK  status: ('A' for Active; 'I' for Inactive)
ROOT
ATOM      1  C1  <0> d          -1.229   3.022   0.782  0.00  0.00    -0.057 C 
ATOM      2  C2  <0> d          -0.786   1.609   1.243  0.00  0.00    -0.043 C 
ATOM      3  C3  <0> d          -0.013   1.086   0.008  0.00  0.00     0.087 C 
ATOM      4  H1  <0> d           0.017   0.086   0.032  0.00  0.00     0.074 H 
ATOM      5  C4  <0> d          -0.794   1.612  -1.183  0.00  0.00     0.144 C 
ATOM      6  O1  <0> d          -0.803   1.145  -2.296  0.00  0.00    -0.297 OA
ATOM      7  C5  <0> d          -1.562   2.832  -0.712  0.00  0.00    -0.008 C 
ATOM      8  C6  <0> d           1.360   1.617  -0.002  0.00  0.00     0.071 C 
ATOM      9  N1  <0> d           2.419   2.028  -0.010  0.00  0.00    -0.196 NA
ATOM     10  H2  <0> d          -2.112   3.345   1.334  0.00  0.00     0.033 H 
ATOM     11  H3  <0> d          -0.416   3.737   0.906  0.00  0.00     0.033 H 
ATOM     12  H4  <0> d          -1.652   0.981   1.454  0.00  0.00     0.035 H 
ATOM     13  H5  <0> d          -0.132   1.673   2.113  0.00  0.00     0.035 H 
ATOM     14  H6  <0> d          -2.548   2.700  -0.820  0.00  0.00     0.044 H 
ATOM     15  H7  <0> d          -1.248   3.709  -1.278  0.00  0.00     0.044 H 
ENDROOT
TORSDOF 0
