REMARK  2 active torsions:
REMARK  status: ('A' for Active; 'I' for Inactive)
REMARK    1  A    between atoms: C3_3  and  C5_6 
REMARK    2  A    between atoms: C5_6  and  C6_7 
ROOT
ATOM      1  C6  <0> d           4.255   2.011   1.414  0.00  0.00     0.019 C 
ATOM      2  C7  <0> d           5.640   2.508   1.403  0.00  0.00     0.059 C 
ATOM      3  N1  <0> d           6.709   2.893   1.395  0.00  0.00    -0.197 NA
ATOM      4  H6  <0> d           3.617   2.723   1.938  0.00  0.00     0.055 H 
ATOM      5  H7  <0> d           4.219   1.048   1.924  0.00  0.00     0.055 H 
ENDROOT
BRANCH   1   6
ATOM      6  C5  <0> d           3.761   1.845  -0.024  0.00  0.00    -0.024 C 
ATOM      7  H4  <0> d           4.399   1.133  -0.548  0.00  0.00     0.042 H 
ATOM      8  H5  <0> d           3.797   2.808  -0.534  0.00  0.00     0.042 H 
BRANCH   6   9
ATOM      9  C3  <0> d           2.343   1.336  -0.013  0.00  0.00    -0.017 A 
ATOM     10  C2  <0> d           1.183   2.038   0.002  0.00  0.00    -0.070 A 
ATOM     11  C1  <0> d          -0.016   1.351   0.009  0.00  0.00    -0.076 A 
ATOM     12  H2  <0> d           1.197   3.118   0.007  0.00  0.00     0.085 H 
ATOM     13  C4  <0> d           0.002  -0.004   0.002  0.00  0.00    -0.045 A 
ATOM     14  H1  <0> d          -0.954   1.887   0.026  0.00  0.00     0.084 H 
ATOM     15  S1  <0> d           1.754  -0.349  -0.017  0.00  0.00    -0.106 SA
ATOM     16  H3  <0> d          -0.828  -0.696   0.006  0.00  0.00     0.095 H 
ENDBRANCH   6   9
ENDBRANCH   1   6
TORSDOF 2
