REMARK  2 active torsions:
REMARK  status: ('A' for Active; 'I' for Inactive)
REMARK    1  A    between atoms: C1_1  and  C2_2 
REMARK    2  A    between atoms: C3_3  and  C10_11 
ROOT
ATOM      1  C2  <0> d          -1.925   2.087  -1.229  0.00  0.00    -0.077 C 
ATOM      2  C3  <0> d          -0.739   1.583  -1.208  0.00  0.00    -0.077 C 
ATOM      3  C4  <0> d          -0.013   1.086   0.008  0.00  0.00    -0.018 C 
ATOM      4  C5  <0> d          -0.717   1.571   1.245  0.00  0.00    -0.024 A 
ATOM      5  C6  <0> d          -0.309   1.585   2.515  0.00  0.00     0.025 A 
ATOM      6  O1  <0> d          -1.293   2.117   3.267  0.00  0.00    -0.334 OA
ATOM      7  C7  <0> d          -2.335   2.445   2.479  0.00  0.00     0.025 A 
ATOM      8  C8  <0> d          -2.024   2.126   1.222  0.00  0.00    -0.024 A 
ATOM      9  C9  <0> d          -2.824   2.280  -0.042  0.00  0.00    -0.018 C 
ATOM     10  H4  <0> d           0.002  -0.004   0.002  0.00  0.00     0.046 H 
ATOM     11  H5  <0> d           1.010   1.463   0.000  0.00  0.00     0.046 H 
ATOM     12  H6  <0> d           0.644   1.232   2.878  0.00  0.00     0.124 H 
ATOM     13  H7  <0> d          -3.262   2.890   2.809  0.00  0.00     0.124 H 
ATOM     14  H8  <0> d          -3.262   3.277  -0.076  0.00  0.00     0.046 H 
ATOM     15  H9  <0> d          -3.618   1.533  -0.063  0.00  0.00     0.046 H 
ENDROOT
BRANCH   1  16
ATOM     16  C1  <0> d          -2.460   2.523  -2.569  0.00  0.00    -0.054 C 
ATOM     17  H1  <0> d          -2.984   1.691  -3.039  0.00  0.00     0.033 H 
ATOM     18  H2  <0> d          -3.149   3.356  -2.432  0.00  0.00     0.033 H 
ATOM     19  H3  <0> d          -1.632   2.837  -3.206  0.00  0.00     0.033 H 
ENDBRANCH   1  16
BRANCH   2  20
ATOM     20  C10 <0> d          -0.015   1.484  -2.526  0.00  0.00    -0.054 C 
ATOM     21  H10 <0> d           0.970   1.043  -2.367  0.00  0.00     0.033 H 
ATOM     22  H11 <0> d          -0.588   0.857  -3.209  0.00  0.00     0.033 H 
ATOM     23  H12 <0> d           0.098   2.480  -2.955  0.00  0.00     0.033 H 
ENDBRANCH   2  20
TORSDOF 2
