REMARK  3 active torsions:
REMARK  status: ('A' for Active; 'I' for Inactive)
REMARK    1  A    between atoms: C1_1  and  O1_2 
REMARK    2  A    between atoms: O1_2  and  C2_3 
REMARK    3  A    between atoms: C5_7  and  C7_9 
ROOT
ATOM      1  C2  <0> d           2.378   1.366  -0.013  0.00  0.00     0.072 A 
ATOM      2  C3  <0> d           1.161   2.040   0.002  0.00  0.00    -0.034 A 
ATOM      3  C4  <0> d          -0.016   1.312   0.009  0.00  0.00     0.006 A 
ATOM      4  N1  <0> d           0.002  -0.004   0.002  0.00  0.00    -0.254 NA
ATOM      5  C5  <0> d           1.141  -0.688  -0.013  0.00  0.00     0.135 A 
ATOM      6  C6  <0> d           2.365  -0.026  -0.020  0.00  0.00    -0.016 A 
ATOM      7  H4  <0> d           1.134   3.119   0.008  0.00  0.00     0.089 H 
ATOM      8  H5  <0> d          -0.963   1.831   0.017  0.00  0.00     0.114 H 
ATOM      9  H6  <0> d           3.289  -0.584  -0.032  0.00  0.00     0.091 H 
ENDROOT
BRANCH   1  10
ATOM     10  O1  <0> d           3.551   2.050  -0.020  0.00  0.00    -0.356 OA
BRANCH  10  11
ATOM     11  C1  <0> d           3.471   3.476  -0.012  0.00  0.00     0.010 C 
ATOM     12  H1  <0> d           2.929   3.815  -0.895  0.00  0.00     0.066 H 
ATOM     13  H2  <0> d           2.945   3.805   0.885  0.00  0.00     0.066 H 
ATOM     14  H3  <0> d           4.476   3.897  -0.019  0.00  0.00     0.066 H 
ENDBRANCH  10  11
ENDBRANCH   1  10
BRANCH   5  15
ATOM     15  C7  <0> d           1.107  -2.169  -0.020  0.00  0.00     0.229 C 
ATOM     16  O2  <0> d           2.144  -2.799  -0.034  0.00  0.00    -0.643 OA
ATOM     17  O3  <0> d          -0.074  -2.815  -0.012  0.00  0.00    -0.643 OA
ENDBRANCH   5  15
TORSDOF 3
