REMARK  7 active torsions:
REMARK  status: ('A' for Active; 'I' for Inactive)
REMARK    1  A    between atoms: C1_1  and  C2_2 
REMARK    2  A    between atoms: C2_2  and  O1_3 
REMARK    3  A    between atoms: O1_3  and  C3_4 
REMARK    4  A    between atoms: C3_4  and  C4_6 
REMARK    5  A    between atoms: C4_6  and  C5_7 
REMARK    6  A    between atoms: C4_6  and  C6_8 
REMARK    7  A    between atoms: C4_6  and  O3_9 
ROOT
ATOM      1  C4  <0> d           1.286   1.562  -0.002  0.00  0.00     0.138 C 
ENDROOT
BRANCH   1   2
ATOM      2  C3  <0> d           2.052   1.121   1.219  0.00  0.00     0.292 C 
ATOM      3  O2  <0> d           3.245   0.943   1.152  0.00  0.00    -0.262 OA
BRANCH   2   4
ATOM      4  O1  <0> d           1.408   0.925   2.380  0.00  0.00    -0.320 OA
BRANCH   4   5
ATOM      5  C2  <0> d           2.209   0.500   3.515  0.00  0.00     0.026 C 
ATOM      6  H4  <0> d           2.692  -0.449   3.284  0.00  0.00     0.074 H 
ATOM      7  H5  <0> d           2.969   1.253   3.724  0.00  0.00     0.074 H 
BRANCH   5   8
ATOM      8  C1  <0> d           1.308   0.330   4.740  0.00  0.00    -0.056 C 
ATOM      9  H1  <0> d           1.910   0.011   5.591  0.00  0.00     0.030 H 
ATOM     10  H2  <0> d           0.826   1.280   4.971  0.00  0.00     0.030 H 
ATOM     11  H3  <0> d           0.548  -0.422   4.530  0.00  0.00     0.030 H 
ENDBRANCH   5   8
ENDBRANCH   4   5
ENDBRANCH   2   4
ENDBRANCH   1   2
BRANCH   1  12
ATOM     12  C5  <0> d           2.040   1.127  -1.261  0.00  0.00    -0.039 C 
ATOM     13  H6  <0> d           1.486   1.446  -2.144  0.00  0.00     0.032 H 
ATOM     14  H7  <0> d           3.029   1.584  -1.268  0.00  0.00     0.032 H 
ATOM     15  H8  <0> d           2.140   0.042  -1.268  0.00  0.00     0.032 H 
ENDBRANCH   1  12
BRANCH   1  16
ATOM     16  C6  <0> d           1.145   3.085   0.008  0.00  0.00    -0.039 C 
ATOM     17  H9  <0> d           0.608   3.395   0.904  0.00  0.00     0.032 H 
ATOM     18  H10 <0> d           2.135   3.542   0.001  0.00  0.00     0.032 H 
ATOM     19  H11 <0> d           0.591   3.404  -0.875  0.00  0.00     0.032 H 
ENDBRANCH   1  16
BRANCH   1  20
ATOM     20  O3  <0> d          -0.011   0.963   0.007  0.00  0.00    -0.380 OA
ATOM     21  H12 <0> d           0.002  -0.004   0.002  0.00  0.00     0.211 HD
ENDBRANCH   1  20
TORSDOF 7
