REMARK  3 active torsions:
REMARK  status: ('A' for Active; 'I' for Inactive)
REMARK    1  A    between atoms: C2_2  and  C6_10 
REMARK    2  A    between atoms: C4_5  and  C5_7 
REMARK       I    between atoms: C5_7  and  N3_9 
REMARK    3  A    between atoms: C6_10  and  O2_11 
ROOT
ATOM      1  C1  <0> d          -1.855   2.360   1.133  0.00  0.00     0.029 A 
ATOM      2  C2  <0> d          -0.718   1.572   1.248  0.00  0.00     0.075 A 
ATOM      3  N1  <0> d          -0.249   1.251   2.441  0.00  0.00    -0.259 NA
ATOM      4  C3  <0> d          -0.865   1.675   3.530  0.00  0.00     0.036 A 
ATOM      5  C4  <0> d          -2.010   2.462   3.418  0.00  0.00     0.141 A 
ATOM      6  N2  <0> d          -2.478   2.782   2.215  0.00  0.00    -0.252 NA
ATOM      7  H1  <0> d          -2.232   2.623   0.156  0.00  0.00     0.118 H 
ATOM      8  H2  <0> d          -0.482   1.414   4.505  0.00  0.00     0.118 H 
ENDROOT
BRANCH   2   9
ATOM      9  C6  <0> d          -0.013   1.086   0.008  0.00  0.00     0.058 C 
ATOM     10  H5  <0> d           1.019   1.466   0.000  0.00  0.00     0.083 H 
ATOM     11  H6  <0> d           0.002  -0.014   0.002  0.00  0.00     0.083 H 
BRANCH   9  12
ATOM     12  O2  <0> d          -0.704   1.559  -1.150  0.00  0.00    -0.395 OA
ATOM     13  H7  <0> d          -0.334   1.304  -2.154  0.00  0.00     0.209 HD
ENDBRANCH   9  12
ENDBRANCH   2   9
BRANCH   5  14
ATOM     14  C5  <0> d          -2.705   2.940   4.636  0.00  0.00     0.269 C 
ATOM     15  O1  <0> d          -2.276   2.647   5.735  0.00  0.00    -0.266 OA
ATOM     16  N3  <0> d          -3.812   3.701   4.526  0.00  0.00    -0.365 N 
ATOM     17  H3  <0> d          -4.328   4.056   5.431  0.00  0.00     0.159 HD
ATOM     18  H4  <0> d          -4.200   3.966   3.532  0.00  0.00     0.159 HD
ENDBRANCH   5  14
TORSDOF 3
