REMARK  4 active torsions:
REMARK  status: ('A' for Active; 'I' for Inactive)
REMARK    1  A    between atoms: C1_1  and  C2_2 
REMARK    2  A    between atoms: C2_2  and  C3_3 
REMARK    3  A    between atoms: C5_5  and  C10_11 
REMARK    4  A    between atoms: C10_11  and  C11_12 
ROOT
ATOM      1  C3  <0> d           0.707  -0.490  -1.238  0.00  0.00    -0.057 A 
ATOM      2  C4  <0> d          -0.013  -0.718  -2.397  0.00  0.00    -0.071 A 
ATOM      3  C5  <0> d           0.627  -1.165  -3.540  0.00  0.00    -0.057 A 
ATOM      4  C6  <0> d           1.988  -1.385  -3.530  0.00  0.00    -0.057 A 
ATOM      5  C7  <0> d           2.721  -1.157  -2.364  0.00  0.00     0.045 A 
ATOM      6  C8  <0> d           2.071  -0.701  -1.216  0.00  0.00    -0.057 A 
ATOM      7  C9  <0> d           4.135  -1.384  -2.347  0.00  0.00     0.099 C 
ATOM      8  N1  <0> d           5.257  -1.564  -2.334  0.00  0.00    -0.191 NA
ATOM      9  H6  <0> d          -1.079  -0.547  -2.410  0.00  0.00     0.085 H 
ATOM     10  H7  <0> d           2.486  -1.734  -4.423  0.00  0.00     0.086 H 
ATOM     11  H8  <0> d           2.632  -0.518  -0.312  0.00  0.00     0.086 H 
ENDROOT
BRANCH   3  12
ATOM     12  C10 <0> d          -0.166  -1.411  -4.797  0.00  0.00    -0.044 C 
ATOM     13  H9  <0> d           0.307  -2.205  -5.376  0.00  0.00     0.039 H 
ATOM     14  H10 <0> d          -1.181  -1.710  -4.534  0.00  0.00     0.039 H 
BRANCH  12  15
ATOM     15  C11 <0> d          -0.211  -0.130  -5.632  0.00  0.00    -0.073 C 
ATOM     16  H11 <0> d          -0.684   0.664  -5.053  0.00  0.00     0.028 H 
ATOM     17  H12 <0> d           0.804   0.168  -5.895  0.00  0.00     0.028 H 
ATOM     18  H13 <0> d          -0.784  -0.308  -6.541  0.00  0.00     0.028 H 
ENDBRANCH  12  15
ENDBRANCH   3  12
BRANCH   1  19
ATOM     19  C2  <0> d           0.002  -0.004   0.002  0.00  0.00    -0.044 C 
ATOM     20  H4  <0> d           0.529  -0.365   0.885  0.00  0.00     0.039 H 
ATOM     21  H5  <0> d          -1.020  -0.381   0.010  0.00  0.00     0.039 H 
BRANCH  19  22
ATOM     22  C1  <0> d          -0.019   1.526   0.010  0.00  0.00    -0.073 C 
ATOM     23  H1  <0> d           1.004   1.903   0.003  0.00  0.00     0.028 H 
ATOM     24  H2  <0> d          -0.546   1.887  -0.873  0.00  0.00     0.028 H 
ATOM     25  H3  <0> d          -0.529   1.877   0.907  0.00  0.00     0.028 H 
ENDBRANCH  19  22
ENDBRANCH   1  19
TORSDOF 4
