REMARK  6 active torsions:
REMARK  status: ('A' for Active; 'I' for Inactive)
REMARK    1  A    between atoms: C1_1  and  C2_2 
REMARK    2  A    between atoms: C2_2  and  C3_3 
REMARK    3  A    between atoms: C3_3  and  C4_4 
REMARK    4  A    between atoms: C3_3  and  C5_5 
REMARK    5  A    between atoms: C3_3  and  O1_7 
REMARK    6  A    between atoms: C5_5  and  C6_6 
ROOT
ATOM      1  C3  <0> d          -0.017   1.425   0.010  0.00  0.00     0.053 C 
ENDROOT
BRANCH   1   2
ATOM      2  C2  <0> d          -0.757   1.932  -1.230  0.00  0.00    -0.040 C 
ATOM      3  H4  <0> d          -1.780   1.554  -1.222  0.00  0.00     0.036 H 
ATOM      4  H5  <0> d          -0.772   3.022  -1.224  0.00  0.00     0.036 H 
BRANCH   2   5
ATOM      5  C1  <0> d          -0.041   1.438  -2.489  0.00  0.00    -0.074 C 
ATOM      6  H1  <0> d          -0.026   0.348  -2.494  0.00  0.00     0.027 H 
ATOM      7  H2  <0> d          -0.568   1.799  -3.372  0.00  0.00     0.027 H 
ATOM      8  H3  <0> d           0.981   1.815  -2.496  0.00  0.00     0.027 H 
ENDBRANCH   2   5
ENDBRANCH   1   2
BRANCH   1   9
ATOM      9  C4  <0> d           1.418   1.954  -0.001  0.00  0.00    -0.048 C 
ATOM     10  H6  <0> d           1.928   1.603  -0.898  0.00  0.00     0.031 H 
ATOM     11  H7  <0> d           1.403   3.044   0.005  0.00  0.00     0.031 H 
ATOM     12  H8  <0> d           1.945   1.593   0.882  0.00  0.00     0.031 H 
ENDBRANCH   1   9
BRANCH   1  13
ATOM     13  C5  <0> d          -0.733   1.918   1.269  0.00  0.00    -0.040 C 
ATOM     14  H9  <0> d          -0.827   3.004   1.232  0.00  0.00     0.036 H 
ATOM     15  H10 <0> d          -1.726   1.470   1.322  0.00  0.00     0.036 H 
BRANCH  13  16
ATOM     16  C6  <0> d           0.074   1.518   2.505  0.00  0.00    -0.074 C 
ATOM     17  H11 <0> d           0.167   0.432   2.542  0.00  0.00     0.027 H 
ATOM     18  H12 <0> d           1.066   1.966   2.452  0.00  0.00     0.027 H 
ATOM     19  H13 <0> d          -0.436   1.869   3.402  0.00  0.00     0.027 H 
ENDBRANCH  13  16
ENDBRANCH   1  13
BRANCH   1  20
ATOM     20  O1  <0> d           0.002  -0.004   0.002  0.00  0.00    -0.390 OA
ATOM     21  H14 <0> d          -0.876  -0.409   0.008  0.00  0.00     0.210 HD
ENDBRANCH   1  20
TORSDOF 6
