REMARK  0 active torsions:
REMARK  status: ('A' for Active; 'I' for Inactive)
ROOT
ATOM      1  C1  <0> d          -1.220   1.750   0.017  0.00  0.00    -0.043 A 
ATOM      2  C2  <0> d          -0.013   1.076   0.008  0.00  0.00    -0.046 A 
ATOM      3  C3  <0> d           1.179   1.784   0.000  0.00  0.00     0.095 A 
ATOM      4  C4  <0> d           1.151   3.176   0.007  0.00  0.00     0.064 A 
ATOM      5  C5  <0> d          -0.060   3.849   0.024  0.00  0.00    -0.018 A 
ATOM      6  C6  <0> d          -1.246   3.134   0.032  0.00  0.00     0.118 A 
ATOM      7  F1  <0> d          -2.429   3.787   0.047  0.00  0.00    -0.206 F 
ATOM      8  N1  <0> d           2.355   3.897  -0.006  0.00  0.00    -0.386 N 
ATOM      9  C7  <0> d           3.597   3.161   0.285  0.00  0.00     0.013 C 
ATOM     10  C8  <0> d           3.523   1.816  -0.452  0.00  0.00     0.041 C 
ATOM     11  O1  <0> d           2.361   1.112  -0.010  0.00  0.00    -0.347 OA
ATOM     12  H1  <0> d          -2.146   1.194   0.018  0.00  0.00     0.088 H 
ATOM     13  H2  <0> d           0.002  -0.004   0.002  0.00  0.00     0.088 H 
ATOM     14  H3  <0> d          -0.080   4.929   0.030  0.00  0.00     0.091 H 
ATOM     15  H4  <0> d           2.369   4.848  -0.200  0.00  0.00     0.159 HD
ATOM     16  H5  <0> d           3.683   2.990   1.359  0.00  0.00     0.067 H 
ATOM     17  H6  <0> d           4.457   3.730  -0.068  0.00  0.00     0.067 H 
ATOM     18  H7  <0> d           4.414   1.228  -0.230  0.00  0.00     0.077 H 
ATOM     19  H8  <0> d           3.458   1.992  -1.526  0.00  0.00     0.077 H 
ENDROOT
TORSDOF 0
