REMARK  0 active torsions:
REMARK  status: ('A' for Active; 'I' for Inactive)
ROOT
ATOM      1  C1  <0> d           1.623   3.508   0.006  0.00  0.00    -0.055 A 
ATOM      2  C2  <0> d           0.591   4.394   0.021  0.00  0.00     0.003 A 
ATOM      3  N1  <0> d          -0.674   4.010   0.030  0.00  0.00    -0.272 NA
ATOM      4  C3  <0> d          -1.004   2.730   0.031  0.00  0.00     0.019 A 
ATOM      5  C4  <0> d          -0.022   1.768   0.012  0.00  0.00     0.032 A 
ATOM      6  C5  <0> d           1.349   2.118   0.001  0.00  0.00    -0.016 A 
ATOM      7  C6  <0> d           2.264   0.991  -0.014  0.00  0.00    -0.065 A 
ATOM      8  C7  <0> d           1.767  -0.257  -0.016  0.00  0.00    -0.043 A 
ATOM      9  S1  <0> d           0.002  -0.004   0.002  0.00  0.00    -0.100 SA
ATOM     10  H1  <0> d           2.643   3.862  -0.002  0.00  0.00     0.087 H 
ATOM     11  H2  <0> d           0.814   5.451   0.025  0.00  0.00     0.114 H 
ATOM     12  H3  <0> d          -2.044   2.440   0.044  0.00  0.00     0.116 H 
ATOM     13  H4  <0> d           3.331   1.154  -0.023  0.00  0.00     0.085 H 
ATOM     14  H5  <0> d           2.308  -1.192  -0.026  0.00  0.00     0.095 H 
ENDROOT
TORSDOF 0
