REMARK  2 active torsions:
REMARK  status: ('A' for Active; 'I' for Inactive)
REMARK    1  A    between atoms: C1_1  and  C2_2 
REMARK    2  A    between atoms: C4_4  and  C6_6 
ROOT
ATOM      1  C2  <0> d           0.002  -0.004   0.002  0.00  0.00    -0.056 C 
ATOM      2  C3  <0> d           1.120  -0.600  -0.870  0.00  0.00    -0.049 C 
ATOM      3  C4  <0> d           1.315  -1.650   0.237  0.00  0.00     0.031 C 
ATOM      4  C5  <0> d           0.727  -0.617   1.212  0.00  0.00    -0.049 C 
ATOM      5  H4  <0> d          -0.979  -0.440  -0.186  0.00  0.00     0.039 H 
ATOM      6  H5  <0> d           0.763  -1.019  -1.811  0.00  0.00     0.034 H 
ATOM      7  H6  <0> d           1.975   0.064  -0.997  0.00  0.00     0.034 H 
ATOM      8  H7  <0> d           0.694  -2.537   0.112  0.00  0.00     0.056 H 
ATOM      9  H8  <0> d           1.474   0.042   1.653  0.00  0.00     0.034 H 
ATOM     10  H9  <0> d           0.052  -1.049   1.952  0.00  0.00     0.034 H 
ENDROOT
BRANCH   1  11
ATOM     11  C1  <0> d          -0.019   1.526   0.010  0.00  0.00    -0.073 C 
ATOM     12  H1  <0> d           1.004   1.903   0.003  0.00  0.00     0.028 H 
ATOM     13  H2  <0> d          -0.546   1.887  -0.873  0.00  0.00     0.028 H 
ATOM     14  H3  <0> d          -0.529   1.877   0.907  0.00  0.00     0.028 H 
ENDBRANCH   1  11
BRANCH   3  15
ATOM     15  C6  <0> d           2.760  -1.980   0.507  0.00  0.00     0.177 C 
ATOM     16  O1  <0> d           3.109  -2.323   1.625  0.00  0.00    -0.648 OA
ATOM     17  O2  <0> d           3.582  -1.905  -0.391  0.00  0.00    -0.648 OA
ENDBRANCH   3  15
TORSDOF 2
