REMARK  5 active torsions:
REMARK  status: ('A' for Active; 'I' for Inactive)
REMARK    1  A    between atoms: C1_1  and  C2_2 
REMARK    2  A    between atoms: C2_2  and  C3_3 
REMARK    3  A    between atoms: C3_3  and  C4_5 
REMARK    4  A    between atoms: C3_3  and  O1_8 
REMARK    5  A    between atoms: C5_6  and  C6_7 
ROOT
ATOM      1  C3  <0> d          -0.729   1.579   1.267  0.00  0.00     0.093 C 
ATOM      2  H1  <0> d          -0.822   2.665   1.230  0.00  0.00     0.103 H 
ENDROOT
BRANCH   1   3
ATOM      3  C2  <0> d          -0.013   1.086   0.008  0.00  0.00    -0.034 C 
ATOM      4  H5  <0> d           0.002  -0.004   0.002  0.00  0.00     0.037 H 
ATOM      5  H6  <0> d           1.010   1.463   0.000  0.00  0.00     0.037 H 
BRANCH   3   6
ATOM      6  C1  <0> d          -0.753   1.593  -1.232  0.00  0.00    -0.073 C 
ATOM      7  H2  <0> d          -0.242   1.241  -2.128  0.00  0.00     0.027 H 
ATOM      8  H3  <0> d          -1.775   1.215  -1.224  0.00  0.00     0.027 H 
ATOM      9  H4  <0> d          -0.767   2.683  -1.226  0.00  0.00     0.027 H 
ENDBRANCH   3   6
ENDBRANCH   1   3
BRANCH   1  10
ATOM     10  C4  <0> d           0.048   1.194   2.456  0.00  0.00    -0.075 C 
ATOM     11  C5  <0> d           0.668   0.886   3.405  0.00  0.00    -0.108 C 
BRANCH  11  12
ATOM     12  C6  <0> d           1.444   0.501   4.594  0.00  0.00    -0.021 C 
ATOM     13  H7  <0> d           0.934   0.852   5.491  0.00  0.00     0.044 H 
ATOM     14  H8  <0> d           1.538  -0.585   4.631  0.00  0.00     0.044 H 
ATOM     15  H9  <0> d           2.437   0.949   4.541  0.00  0.00     0.044 H 
ENDBRANCH  11  12
ENDBRANCH   1  10
BRANCH   1  16
ATOM     16  O1  <0> d          -2.030   0.991   1.336  0.00  0.00    -0.383 OA
ATOM     17  H10 <0> d          -2.023   0.025   1.372  0.00  0.00     0.211 HD
ENDBRANCH   1  16
TORSDOF 5
