REMARK  2 active torsions:
REMARK  status: ('A' for Active; 'I' for Inactive)
REMARK    1  A    between atoms: N1_5  and  C5_8 
REMARK    2  A    between atoms: C5_8  and  C6_9 
ROOT
ATOM      1  C1  <0> d          -0.013   1.076   0.008  0.00  0.00    -0.059 A 
ATOM      2  C2  <0> d          -1.195   1.760   0.017  0.00  0.00    -0.014 A 
ATOM      3  C3  <0> d          -1.139   3.171   0.030  0.00  0.00     0.264 A 
ATOM      4  O1  <0> d          -2.167   3.828   0.043  0.00  0.00    -0.267 OA
ATOM      5  N1  <0> d           0.060   3.783   0.022  0.00  0.00    -0.225 N 
ATOM      6  N2  <0> d           1.157   3.116   0.008  0.00  0.00    -0.181 NA
ATOM      7  C4  <0> d           1.183   1.812   0.001  0.00  0.00     0.022 A 
ATOM      8  H1  <0> d           0.002  -0.004   0.002  0.00  0.00     0.086 H 
ATOM      9  H2  <0> d          -2.141   1.239   0.019  0.00  0.00     0.092 H 
ATOM     10  H3  <0> d           2.132   1.295  -0.012  0.00  0.00     0.117 H 
ENDROOT
BRANCH   5  11
ATOM     11  C5  <0> d           0.115   5.247   0.030  0.00  0.00     0.100 C 
ATOM     12  H4  <0> d           1.013   5.580  -0.491  0.00  0.00     0.084 H 
ATOM     13  H5  <0> d          -0.766   5.646  -0.474  0.00  0.00     0.084 H 
BRANCH  11  14
ATOM     14  C6  <0> d           0.147   5.741   1.453  0.00  0.00     0.193 C 
ATOM     15  O2  <0> d           0.126   4.951   2.367  0.00  0.00    -0.647 OA
ATOM     16  O3  <0> d           0.198   7.058   1.706  0.00  0.00    -0.647 OA
ENDBRANCH  11  14
ENDBRANCH   5  11
TORSDOF 2
