REMARK  2 active torsions:
REMARK  status: ('A' for Active; 'I' for Inactive)
REMARK    1  A    between atoms: C1_1  and  C2_2 
REMARK    2  A    between atoms: C9_10  and  N3_12 
ROOT
ATOM      1  C2  <0> d          -2.405   1.375   0.034  0.00  0.00    -0.061 A 
ATOM      2  C3  <0> d          -2.388  -0.019   0.026  0.00  0.00    -0.075 A 
ATOM      3  C4  <0> d          -1.212  -0.707   0.010  0.00  0.00    -0.053 A 
ATOM      4  C5  <0> d           0.002  -0.004   0.002  0.00  0.00     0.087 A 
ATOM      5  C6  <0> d          -0.017   1.415   0.010  0.00  0.00     0.012 A 
ATOM      6  C7  <0> d          -1.246   2.090   0.031  0.00  0.00    -0.064 A 
ATOM      7  C8  <0> d           1.212   2.100   0.002  0.00  0.00     0.033 A 
ATOM      8  N1  <0> d           2.324   1.395  -0.013  0.00  0.00    -0.075 NA
ATOM      9  C9  <0> d           2.305   0.064  -0.020  0.00  0.00     0.720 A 
ATOM     10  N2  <0> d           1.184  -0.632  -0.013  0.00  0.00    -0.063 NA
ATOM     11  H4  <0> d          -3.321  -0.562   0.032  0.00  0.00     0.084 H 
ATOM     12  H5  <0> d          -1.214  -1.787   0.005  0.00  0.00     0.087 H 
ATOM     13  H6  <0> d          -1.273   3.170   0.037  0.00  0.00     0.085 H 
ATOM     14  H7  <0> d           1.242   3.180   0.007  0.00  0.00     0.117 H 
ENDROOT
BRANCH   1  15
ATOM     15  C1  <0> d          -3.726   2.100   0.051  0.00  0.00    -0.051 C 
ATOM     16  H1  <0> d          -4.034   2.269   1.083  0.00  0.00     0.033 H 
ATOM     17  H2  <0> d          -3.621   3.058  -0.458  0.00  0.00     0.033 H 
ATOM     18  H3  <0> d          -4.478   1.498  -0.458  0.00  0.00     0.033 H 
ENDBRANCH   1  15
BRANCH   9  19
ATOM     19  N3  <0> d           3.509  -0.617  -0.035  0.00  0.00    -0.231 N 
ATOM     20  H8  <0> d           3.518  -1.587  -0.040  0.00  0.00     0.174 HD
ATOM     21  H9  <0> d           4.345  -0.124  -0.040  0.00  0.00     0.174 HD
ENDBRANCH   9  19
TORSDOF 2
