REMARK  1 active torsions:
REMARK  status: ('A' for Active; 'I' for Inactive)
REMARK    1  A    between atoms: C4_6  and  C5_7 
ROOT
ATOM      1  C1  <0> d          -0.017   1.382   0.010  0.00  0.00    -0.054 A 
ATOM      2  C2  <0> d           1.200   2.050   0.002  0.00  0.00    -0.040 A 
ATOM      3  C3  <0> d           2.360   1.289  -0.014  0.00  0.00     0.148 A 
ATOM      4  N1  <0> d           2.280  -0.029  -0.020  0.00  0.00    -0.138 NA
ATOM      5  N2  <0> d           1.155  -0.646  -0.012  0.00  0.00    -0.153 NA
ATOM      6  C4  <0> d           0.002  -0.004   0.002  0.00  0.00     0.061 A 
ATOM      7 Cl1  <0> d           3.912   2.067  -0.025  0.00  0.00    -0.061 Cl
ATOM      8  H1  <0> d          -0.950   1.925   0.026  0.00  0.00     0.086 H 
ATOM      9  H2  <0> d           1.243   3.129   0.007  0.00  0.00     0.088 H 
ENDROOT
BRANCH   6  10
ATOM     10  C5  <0> d          -1.292  -0.777   0.011  0.00  0.00    -0.010 A 
ATOM     11  C7  <0> d          -1.946  -1.044   1.368  0.00  0.00    -0.056 A 
ATOM     12  C6  <0> d          -2.562  -0.023   0.410  0.00  0.00    -0.056 A 
ATOM     13  H6  <0> d          -2.468  -1.993   1.497  0.00  0.00     0.034 H 
ATOM     14  H7  <0> d          -1.440  -0.662   2.254  0.00  0.00     0.034 H 
ATOM     15  H4  <0> d          -2.462   1.032   0.666  0.00  0.00     0.034 H 
ATOM     16  H5  <0> d          -3.490  -0.299  -0.091  0.00  0.00     0.034 H 
ATOM     17  H3  <0> d          -1.383  -1.549  -0.753  0.00  0.00     0.049 H 
ENDBRANCH   6  10
TORSDOF 1
