REMARK  1 active torsions:
REMARK  status: ('A' for Active; 'I' for Inactive)
REMARK    1  A    between atoms: C1_1  and  C2_2 
ROOT
ATOM      1  C2  <0> d           2.241   0.730  -0.015  0.00  0.00    -0.034 A 
ATOM      2  C3  <0> d           1.328  -0.296  -0.012  0.00  0.00    -0.069 A 
ATOM      3  C4  <0> d           0.002  -0.004   0.002  0.00  0.00    -0.043 A 
ATOM      4  S1  <0> d          -0.021   1.729   0.012  0.00  0.00    -0.090 SA
ATOM      5  C5  <0> d           1.738   2.022  -0.004  0.00  0.00     0.090 A 
ATOM      6  C6  <0> d           2.447   3.266  -0.004  0.00  0.00     0.107 C 
ATOM      7  N1  <0> d           3.009   4.253  -0.004  0.00  0.00    -0.191 NA
ATOM      8  H4  <0> d           1.661  -1.324  -0.021  0.00  0.00     0.085 H 
ATOM      9  H5  <0> d          -0.835  -0.686   0.007  0.00  0.00     0.095 H 
ENDROOT
BRANCH   1  10
ATOM     10  C1  <0> d           3.724   0.464  -0.031  0.00  0.00    -0.049 C 
ATOM     11  H1  <0> d           4.072   0.404  -1.062  0.00  0.00     0.033 H 
ATOM     12  H2  <0> d           4.244   1.273   0.482  0.00  0.00     0.033 H 
ATOM     13  H3  <0> d           3.929  -0.479   0.476  0.00  0.00     0.033 H 
ENDBRANCH   1  10
TORSDOF 1
