REMARK  0 active torsions:
REMARK  status: ('A' for Active; 'I' for Inactive)
ROOT
ATOM      1  C1  <0> d          -0.017   1.376   0.010  0.00  0.00    -0.063 A 
ATOM      2  C2  <0> d           1.186   2.071   0.002  0.00  0.00    -0.045 A 
ATOM      3  C3  <0> d           2.366   1.345  -0.013  0.00  0.00     0.124 A 
ATOM      4  C4  <0> d           2.310  -0.049  -0.020  0.00  0.00     0.200 A 
ATOM      5  N1  <0> d           1.142  -0.669  -0.012  0.00  0.00    -0.235 NA
ATOM      6  C5  <0> d           0.002  -0.004   0.002  0.00  0.00     0.005 A 
ATOM      7  O1  <0> d           3.586  -0.532  -0.034  0.00  0.00    -0.306 OA
ATOM      8  C6  <0> d           4.412   0.571  -0.449  0.00  0.00     0.116 C 
ATOM      9  O2  <0> d           3.673   1.732  -0.024  0.00  0.00    -0.321 OA
ATOM     10  H1  <0> d          -0.956   1.909   0.026  0.00  0.00     0.085 H 
ATOM     11  H2  <0> d           1.201   3.150   0.007  0.00  0.00     0.088 H 
ATOM     12  H3  <0> d          -0.931  -0.548   0.008  0.00  0.00     0.114 H 
ATOM     13  H4  <0> d           5.382   0.531   0.048  0.00  0.00     0.119 H 
ATOM     14  H5  <0> d           4.536   0.571  -1.532  0.00  0.00     0.119 H 
ENDROOT
TORSDOF 0
