REMARK  2 active torsions:
REMARK  status: ('A' for Active; 'I' for Inactive)
REMARK    1  A    between atoms: N2_4  and  C4_6 
REMARK    2  A    between atoms: C4_6  and  N3_7 
ROOT
ATOM      1  C4  <0> d          -1.212   2.191   0.020  0.00  0.00     0.095 C 
ATOM      2  H4  <0> d          -1.263   2.760  -0.908  0.00  0.00     0.102 H 
ATOM      3  H5  <0> d          -2.100   1.564   0.111  0.00  0.00     0.102 H 
ENDROOT
BRANCH   1   4
ATOM      4  N2  <0> d          -0.016   1.345   0.009  0.00  0.00    -0.262 N 
ATOM      5  N1  <0> d           1.311   1.794  -0.001  0.00  0.00    -0.184 NA
ATOM      6  C2  <0> d           2.096   0.748  -0.014  0.00  0.00     0.023 A 
ATOM      7  C1  <0> d           1.296  -0.399  -0.013  0.00  0.00    -0.048 A 
ATOM      8  H2  <0> d           3.176   0.767  -0.024  0.00  0.00     0.117 H 
ATOM      9  C3  <0> d           0.002  -0.004   0.002  0.00  0.00     0.002 A 
ATOM     10  H1  <0> d           1.649  -1.420  -0.021  0.00  0.00     0.087 H 
ATOM     11  H3  <0> d          -0.862  -0.653   0.007  0.00  0.00     0.114 H 
ENDBRANCH   1   4
BRANCH   1  12
ATOM     12  N3  <0> d          -1.148   3.114   1.156  0.00  0.00    -0.262 N 
ATOM     13  N4  <0> d          -0.982   2.756   2.500  0.00  0.00    -0.184 NA
ATOM     14  C7  <0> d          -0.970   3.850   3.216  0.00  0.00     0.023 A 
ATOM     15  C6  <0> d          -1.138   4.939   2.354  0.00  0.00    -0.048 A 
ATOM     16  H8  <0> d          -0.855   3.904   4.289  0.00  0.00     0.117 H 
ATOM     17  C5  <0> d          -1.245   4.458   1.093  0.00  0.00     0.002 A 
ATOM     18  H7  <0> d          -1.176   5.979   2.643  0.00  0.00     0.087 H 
ATOM     19  H6  <0> d          -1.383   5.045   0.198  0.00  0.00     0.114 H 
ENDBRANCH   1  12
TORSDOF 2
