REMARK  2 active torsions:
REMARK  status: ('A' for Active; 'I' for Inactive)
REMARK    1  A    between atoms: C1_1  and  C2_2 
REMARK    2  A    between atoms: C6_7  and  N2_8 
ROOT
ATOM      1  C2  <0> d          -0.017   1.382   0.010  0.00  0.00    -0.031 A 
ATOM      2  C3  <0> d           0.002  -0.004   0.002  0.00  0.00    -0.058 A 
ATOM      3  C4  <0> d           1.216  -0.663  -0.013  0.00  0.00     0.004 A 
ATOM      4  N1  <0> d           2.352   0.008  -0.020  0.00  0.00    -0.246 NA
ATOM      5  C5  <0> d           2.380   1.326  -0.013  0.00  0.00     0.152 A 
ATOM      6  C6  <0> d           1.199   2.060   0.002  0.00  0.00     0.072 A 
ATOM      7 Cl1  <0> d           3.906   2.154  -0.024  0.00  0.00    -0.060 Cl
ATOM      8  H4  <0> d          -0.922  -0.563   0.007  0.00  0.00     0.086 H 
ATOM      9  H5  <0> d           1.236  -1.743  -0.019  0.00  0.00     0.114 H 
ENDROOT
BRANCH   1  10
ATOM     10  C1  <0> d          -1.321   2.136   0.020  0.00  0.00    -0.049 C 
ATOM     11  H1  <0> d          -1.631   2.312   1.050  0.00  0.00     0.033 H 
ATOM     12  H2  <0> d          -1.193   3.091  -0.489  0.00  0.00     0.033 H 
ATOM     13  H3  <0> d          -2.084   1.550  -0.493  0.00  0.00     0.033 H 
ENDBRANCH   1  10
BRANCH   6  14
ATOM     14  N2  <0> d           1.232   3.457   0.008  0.00  0.00    -0.396 N 
ATOM     15  H6  <0> d           0.403   3.962   0.019  0.00  0.00     0.156 HD
ATOM     16  H7  <0> d           2.083   3.922   0.003  0.00  0.00     0.156 HD
ENDBRANCH   6  14
TORSDOF 2
