REMARK  5 active torsions:
REMARK  status: ('A' for Active; 'I' for Inactive)
REMARK    1  A    between atoms: C1_1  and  C2_2 
REMARK    2  A    between atoms: C5_6  and  C9_11 
REMARK    3  A    between atoms: C5_6  and  C10_12 
REMARK    4  A    between atoms: C6_7  and  C8_10 
REMARK    5  A    between atoms: C10_12  and  O1_13 
ROOT
ATOM      1  C2  <0> d           0.763  -2.041   1.233  0.00  0.00    -0.057 C 
ATOM      2  H1  <0> d          -0.260  -2.418   1.241  0.00  0.00     0.039 H 
ATOM      3  C3  <0> d           1.479  -2.534  -0.026  0.00  0.00    -0.061 C 
ATOM      4  C4  <0> d           0.739  -2.027  -1.265  0.00  0.00    -0.056 C 
ATOM      5  C5  <0> d           0.718  -0.497  -1.257  0.00  0.00    -0.019 C 
ATOM      6  C6  <0> d           0.002  -0.004   0.002  0.00  0.00    -0.048 C 
ATOM      7  H2  <0> d          -1.020  -0.381   0.010  0.00  0.00     0.040 H 
ATOM      8  C7  <0> d           0.742  -0.511   1.242  0.00  0.00    -0.058 C 
ATOM      9  H6  <0> d           2.502  -2.157  -0.033  0.00  0.00     0.033 H 
ATOM     10  H7  <0> d           1.494  -3.624  -0.032  0.00  0.00     0.033 H 
ATOM     11  H8  <0> d           1.249  -2.379  -2.162  0.00  0.00     0.034 H 
ATOM     12  H9  <0> d          -0.284  -2.405  -1.258  0.00  0.00     0.034 H 
ATOM     13  H10 <0> d           1.765  -0.134   1.234  0.00  0.00     0.034 H 
ATOM     14  H11 <0> d           0.232  -0.159   2.138  0.00  0.00     0.034 H 
ENDROOT
BRANCH   5  15
ATOM     15  C9  <0> d           2.154   0.032  -1.268  0.00  0.00    -0.067 C 
ATOM     16  H15 <0> d           2.681  -0.329  -0.385  0.00  0.00     0.028 H 
ATOM     17  H16 <0> d           2.664  -0.319  -2.164  0.00  0.00     0.028 H 
ATOM     18  H17 <0> d           2.139   1.122  -1.262  0.00  0.00     0.028 H 
ENDBRANCH   5  15
BRANCH   5  19
ATOM     19  C10 <0> d          -0.022   0.009  -2.496  0.00  0.00     0.024 C 
ATOM     20  H18 <0> d          -1.044  -0.368  -2.489  0.00  0.00     0.075 H 
ATOM     21  H19 <0> d          -0.037   1.099  -2.490  0.00  0.00     0.075 H 
BRANCH  19  22
ATOM     22  O1  <0> d           0.647  -0.452  -3.672  0.00  0.00    -0.400 OA
ATOM     23  H20 <0> d           0.232  -0.167  -4.498  0.00  0.00     0.209 HD
ENDBRANCH  19  22
ENDBRANCH   5  19
BRANCH   6  24
ATOM     24  C8  <0> d          -0.019   1.526   0.010  0.00  0.00    -0.072 C 
ATOM     25  H12 <0> d           1.004   1.903   0.003  0.00  0.00     0.028 H 
ATOM     26  H13 <0> d          -0.546   1.887  -0.873  0.00  0.00     0.028 H 
ATOM     27  H14 <0> d          -0.529   1.877   0.907  0.00  0.00     0.028 H 
ENDBRANCH   6  24
BRANCH   1  28
ATOM     28  C1  <0> d           1.503  -2.548   2.473  0.00  0.00    -0.073 C 
ATOM     29  H3  <0> d           0.993  -2.196   3.369  0.00  0.00     0.028 H 
ATOM     30  H4  <0> d           1.518  -3.638   2.467  0.00  0.00     0.028 H 
ATOM     31  H5  <0> d           2.525  -2.170   2.465  0.00  0.00     0.028 H 
ENDBRANCH   1  28
TORSDOF 5
