REMARK  3 active torsions:
REMARK  status: ('A' for Active; 'I' for Inactive)
REMARK    1  A    between atoms: C1_1  and  C2_2 
REMARK    2  A    between atoms: C4_4  and  N1_9 
REMARK    3  A    between atoms: N1_9  and  C8_10 
ROOT
ATOM      1  C2  <0> d           0.002  -0.004   0.002  0.00  0.00    -0.021 A 
ATOM      2  C3  <0> d           0.006  -0.688  -1.198  0.00  0.00    -0.049 A 
ATOM      3  C4  <0> d           0.025  -2.076  -1.205  0.00  0.00     0.028 A 
ATOM      4  C5  <0> d           0.040  -2.775  -0.005  0.00  0.00    -0.055 A 
ATOM      5  C6  <0> d           0.036  -2.087   1.193  0.00  0.00    -0.043 A 
ATOM      6  C7  <0> d           0.023  -0.702   1.197  0.00  0.00     0.122 A 
ATOM      7  F1  <0> d           0.025  -0.032   2.370  0.00  0.00    -0.206 F 
ATOM      8  H4  <0> d          -0.006  -0.143  -2.131  0.00  0.00     0.087 H 
ATOM      9  H5  <0> d           0.054  -3.854  -0.008  0.00  0.00     0.087 H 
ATOM     10  H6  <0> d           0.047  -2.630   2.127  0.00  0.00     0.088 H 
ENDROOT
BRANCH   3  11
ATOM     11  N1  <0> d           0.028  -2.770  -2.419  0.00  0.00    -0.394 N 
ATOM     12  H7  <0> d           0.017  -2.282  -3.257  0.00  0.00     0.159 HD
BRANCH  11  13
ATOM     13  C8  <0> d           0.048  -4.235  -2.425  0.00  0.00    -0.021 C 
ATOM     14  H8  <0> d           0.945  -4.588  -1.918  0.00  0.00     0.056 H 
ATOM     15  H9  <0> d          -0.835  -4.612  -1.909  0.00  0.00     0.056 H 
ATOM     16  H10 <0> d           0.047  -4.594  -3.455  0.00  0.00     0.056 H 
ENDBRANCH  11  13
ENDBRANCH   3  11
BRANCH   1  17
ATOM     17  C1  <0> d          -0.018   1.503   0.010  0.00  0.00    -0.048 C 
ATOM     18  H1  <0> d           1.004   1.880   0.003  0.00  0.00     0.033 H 
ATOM     19  H2  <0> d          -0.545   1.864  -0.873  0.00  0.00     0.033 H 
ATOM     20  H3  <0> d          -0.529   1.854   0.907  0.00  0.00     0.033 H 
ENDBRANCH   1  17
TORSDOF 3
