REMARK  1 active torsions:
REMARK  status: ('A' for Active; 'I' for Inactive)
REMARK    1  A    between atoms: C6_6  and  O1_7 
ROOT
ATOM      1  C1  <0> d          -3.922   3.728  -0.718  0.00  0.00    -0.050 A 
ATOM      2  C2  <0> d          -2.932   3.059  -1.397  0.00  0.00    -0.066 A 
ATOM      3  C3  <0> d          -1.927   2.380  -0.687  0.00  0.00     0.016 A 
ATOM      4  C4  <0> d          -1.945   2.393   0.710  0.00  0.00    -0.041 A 
ATOM      5  C5  <0> d          -2.936   3.063   1.377  0.00  0.00    -0.044 A 
ATOM      6  C6  <0> d          -3.929   3.733   0.673  0.00  0.00     0.066 A 
ATOM      7  C7  <0> d          -0.771   1.601   1.239  0.00  0.00    -0.034 A 
ATOM      8  C8  <0> d          -0.013   1.086   0.008  0.00  0.00    -0.001 A 
ATOM      9  C9  <0> d          -0.781   1.605  -1.183  0.00  0.00     0.160 A 
ATOM     10  O2  <0> d          -0.501   1.415  -2.348  0.00  0.00    -0.292 OA
ATOM     11  H1  <0> d          -4.694   4.250  -1.264  0.00  0.00     0.087 H 
ATOM     12  H2  <0> d          -2.927   3.054  -2.477  0.00  0.00     0.085 H 
ATOM     13  H3  <0> d          -2.946   3.069   2.457  0.00  0.00     0.088 H 
ATOM     14  H5  <0> d          -1.124   0.762   1.839  0.00  0.00     0.040 H 
ATOM     15  H6  <0> d          -0.123   2.242   1.837  0.00  0.00     0.040 H 
ATOM     16  H7  <0> d           0.014   0.086   0.027  0.00  0.00     0.045 H 
ATOM     17  H8  <0> d           1.005   1.477   0.000  0.00  0.00     0.045 H 
ENDROOT
BRANCH   6  18
ATOM     18  O1  <0> d          -4.906   4.393   1.343  0.00  0.00    -0.361 OA
ATOM     19  H4  <0> d          -5.684   3.853   1.538  0.00  0.00     0.217 HD
ENDBRANCH   6  18
TORSDOF 1
