REMARK  3 active torsions:
REMARK  status: ('A' for Active; 'I' for Inactive)
REMARK    1  A    between atoms: C1_1  and  S1_2 
REMARK    2  A    between atoms: S1_2  and  C2_3 
REMARK    3  A    between atoms: C3_6  and  N3_8 
ROOT
ATOM      1  C2  <0> d           1.119   2.043   0.002  0.00  0.00     0.160 A 
ATOM      2  N1  <0> d          -0.017   1.371   0.010  0.00  0.00    -0.133 NA
ATOM      3  N2  <0> d           0.002  -0.004   0.002  0.00  0.00    -0.123 NA
ATOM      4  C3  <0> d           1.154  -0.645  -0.012  0.00  0.00     0.188 A 
ATOM      5  S2  <0> d           2.313   0.715  -0.016  0.00  0.00    -0.022 SA
ENDROOT
BRANCH   1   6
ATOM      6  S1  <0> d           1.386   3.785   0.009  0.00  0.00    -0.105 SA
BRANCH   6   7
ATOM      7  C1  <0> d          -0.287   4.485   0.030  0.00  0.00    -0.028 C 
ATOM      8  H1  <0> d          -0.225   5.583   0.035  0.00  0.00     0.042 H 
ATOM      9  H2  <0> d          -0.817   4.144   0.931  0.00  0.00     0.042 H 
ATOM     10  H3  <0> d          -0.835   4.154  -0.865  0.00  0.00     0.042 H 
ENDBRANCH   6   7
ENDBRANCH   1   6
BRANCH   4  11
ATOM     11  N3  <0> d           1.402  -2.013  -0.022  0.00  0.00    -0.377 N 
ATOM     12  H4  <0> d           2.437  -2.384  -0.034  0.00  0.00     0.158 HD
ATOM     13  H5  <0> d           0.562  -2.723  -0.018  0.00  0.00     0.158 HD
ENDBRANCH   4  11
TORSDOF 3
