REMARK  5 active torsions:
REMARK  status: ('A' for Active; 'I' for Inactive)
REMARK    1  A    between atoms: C1_1  and  C2_2 
REMARK    2  A    between atoms: C2_2  and  C3_4 
REMARK    3  A    between atoms: C2_2  and  O1_11 
REMARK    4  A    between atoms: C3_4  and  C4_5 
REMARK    5  A    between atoms: N1_9  and  C8_10 
ROOT
ATOM      1  C4  <0> d           0.657  -2.014   1.298  0.00  0.00     0.013 A 
ATOM      2  C5  <0> d           1.484  -2.877   0.673  0.00  0.00    -0.060 A 
ATOM      3  C6  <0> d           1.052  -4.180   0.990  0.00  0.00    -0.066 A 
ATOM      4  C7  <0> d          -0.023  -4.064   1.797  0.00  0.00    -0.021 A 
ATOM      5  N1  <0> d          -0.266  -2.737   1.994  0.00  0.00    -0.364 N 
ATOM      6  H7  <0> d           2.322  -2.617   0.044  0.00  0.00     0.086 H 
ATOM      7  H8  <0> d           1.499  -5.102   0.649  0.00  0.00     0.085 H 
ATOM      8  H9  <0> d          -0.590  -4.881   2.218  0.00  0.00     0.111 H 
ENDROOT
BRANCH   1   9
ATOM      9  C3  <0> d           0.742  -0.511   1.242  0.00  0.00    -0.003 C 
ATOM     10  H5  <0> d           1.788  -0.208   1.190  0.00  0.00     0.046 H 
ATOM     11  H6  <0> d           0.285  -0.087   2.136  0.00  0.00     0.046 H 
BRANCH   9  12
ATOM     12  C2  <0> d           0.002  -0.004   0.002  0.00  0.00     0.037 C 
ATOM     13  H1  <0> d          -1.020  -0.381   0.010  0.00  0.00     0.082 H 
BRANCH  12  14
ATOM     14  C1  <0> d          -0.019   1.526   0.010  0.00  0.00    -0.052 C 
ATOM     15  H2  <0> d           1.004   1.903   0.003  0.00  0.00     0.030 H 
ATOM     16  H3  <0> d          -0.546   1.887  -0.873  0.00  0.00     0.030 H 
ATOM     17  H4  <0> d          -0.529   1.877   0.907  0.00  0.00     0.030 H 
ENDBRANCH  12  14
BRANCH  12  18
ATOM     18  O1  <0> d           0.671  -0.465  -1.174  0.00  0.00    -0.396 OA
ATOM     19  H13 <0> d           0.256  -0.181  -1.999  0.00  0.00     0.210 HD
ENDBRANCH  12  18
ENDBRANCH   9  12
ENDBRANCH   1   9
BRANCH   5  20
ATOM     20  C8  <0> d          -1.344  -2.180   2.815  0.00  0.00    -0.015 C 
ATOM     21  H10 <0> d          -2.232  -2.037   2.200  0.00  0.00     0.057 H 
ATOM     22  H11 <0> d          -1.572  -2.867   3.630  0.00  0.00     0.057 H 
ATOM     23  H12 <0> d          -1.029  -1.221   3.227  0.00  0.00     0.057 H 
ENDBRANCH   5  20
TORSDOF 5
