REMARK  4 active torsions:
REMARK  status: ('A' for Active; 'I' for Inactive)
REMARK    1  A    between atoms: C1_1  and  O1_2 
REMARK    2  A    between atoms: O1_2  and  C2_3 
REMARK    3  A    between atoms: C2_3  and  C3_5 
REMARK    4  A    between atoms: C3_5  and  N1_6 
ROOT
ATOM      1  C2  <0> d          -1.185  -0.630   0.010  0.00  0.00     0.286 C 
ATOM      2  O2  <0> d          -2.208   0.015   0.023  0.00  0.00    -0.263 OA
ENDROOT
BRANCH   1   3
ATOM      3  O1  <0> d           0.002  -0.004   0.002  0.00  0.00    -0.325 OA
BRANCH   3   4
ATOM      4  C1  <0> d          -0.017   1.425   0.010  0.00  0.00     0.013 C 
ATOM      5  H1  <0> d           1.005   1.802   0.002  0.00  0.00     0.067 H 
ATOM      6  H2  <0> d          -0.544   1.786  -0.873  0.00  0.00     0.067 H 
ATOM      7  H3  <0> d          -0.527   1.776   0.907  0.00  0.00     0.067 H 
ENDBRANCH   3   4
ENDBRANCH   1   3
BRANCH   1   8
ATOM      8  C3  <0> d          -1.244  -2.135   0.003  0.00  0.00     0.188 C 
ATOM      9  H4  <0> d          -0.753  -2.514  -0.894  0.00  0.00     0.094 H 
ATOM     10  H5  <0> d          -0.736  -2.523   0.886  0.00  0.00     0.094 H 
BRANCH   8  11
ATOM     11  N1  <0> d          -2.647  -2.571   0.013  0.00  0.00     0.087 N 
ATOM     12  H6  <0> d          -3.156  -2.172  -0.761  0.00  0.00     0.313 HD
ATOM     13  H7  <0> d          -2.713  -3.578   0.009  0.00  0.00     0.313 HD
ENDBRANCH   8  11
ENDBRANCH   1   8
TORSDOF 4
