REMARK  3 active torsions:
REMARK  status: ('A' for Active; 'I' for Inactive)
REMARK    1  A    between atoms: C1_1  and  C2_2 
REMARK    2  A    between atoms: C1_1  and  O1_7 
REMARK    3  A    between atoms: C2_2  and  N2_6 
ROOT
ATOM      1  C2  <0> d           0.002  -0.004   0.002  0.00  0.00     0.232 C 
ATOM      2  H1  <0> d           0.588  -0.355  -0.847  0.00  0.00     0.115 H 
ATOM      3  C3  <0> d          -1.375  -0.513  -0.108  0.00  0.00     0.097 C 
ATOM      4  N1  <0> d          -2.437  -0.905  -0.194  0.00  0.00    -0.195 NA
ENDROOT
BRANCH   1   5
ATOM      5  C1  <0> d          -0.019   1.526   0.010  0.00  0.00     0.058 C 
ATOM      6  H2  <0> d          -0.546   1.887  -0.873  0.00  0.00     0.078 H 
ATOM      7  H3  <0> d          -0.529   1.877   0.907  0.00  0.00     0.078 H 
BRANCH   5   8
ATOM      8  O1  <0> d           1.322   2.020   0.000  0.00  0.00    -0.398 OA
ATOM      9  H6  <0> d           1.385   2.985   0.005  0.00  0.00     0.209 HD
ENDBRANCH   5   8
ENDBRANCH   1   5
BRANCH   1  10
ATOM     10  N2  <0> d           0.606  -0.492   1.249  0.00  0.00     0.098 N 
ATOM     11  H4  <0> d           1.572  -0.210   1.317  0.00  0.00     0.314 HD
ATOM     12  H5  <0> d           0.080  -0.180   2.052  0.00  0.00     0.314 HD
ENDBRANCH   1  10
TORSDOF 3
