REMARK  2 active torsions:
REMARK  status: ('A' for Active; 'I' for Inactive)
REMARK    1  A    between atoms: C1_1  and  C2_2 
REMARK    2  A    between atoms: C2_2  and  C3_4 
ROOT
ATOM      1  C3  <0> d          -0.050   3.846   0.023  0.00  0.00     0.011 A 
ATOM      2  C4  <0> d           1.168   3.159   0.008  0.00  0.00    -0.069 A 
ATOM      3  C5  <0> d           1.179   1.781   0.000  0.00  0.00    -0.080 A 
ATOM      4  C6  <0> d          -0.013   1.076   0.008  0.00  0.00    -0.062 A 
ATOM      5  C7  <0> d          -1.223   1.748   0.017  0.00  0.00     0.035 A 
ATOM      6  C8  <0> d          -1.249   3.128   0.031  0.00  0.00    -0.049 A 
ATOM      7 Cl1  <0> d          -2.711   0.854   0.020  0.00  0.00    -0.084 Cl
ATOM      8  H4  <0> d           2.099   3.707   0.002  0.00  0.00     0.085 H 
ATOM      9  H5  <0> d           2.119   1.249  -0.012  0.00  0.00     0.083 H 
ATOM     10  H6  <0> d           0.002  -0.004   0.002  0.00  0.00     0.086 H 
ATOM     11  H7  <0> d          -2.194   3.652   0.043  0.00  0.00     0.087 H 
ENDROOT
BRANCH   1  12
ATOM     12  C2  <0> d          -0.069   5.318   0.032  0.00  0.00     0.155 C 
ATOM     13  O1  <0> d           0.974   5.938   0.025  0.00  0.00    -0.293 OA
BRANCH  12  14
ATOM     14  C1  <0> d          -1.383   6.055   0.048  0.00  0.00    -0.017 C 
ATOM     15  H1  <0> d          -1.665   6.212   0.995  0.00  0.00     0.038 H 
ATOM     16  H2  <0> d          -1.270   7.011  -0.461  0.00  0.00     0.038 H 
ATOM     17  H3  <0> d          -2.140   5.459  -0.462  0.00  0.00     0.038 H 
ENDBRANCH  12  14
ENDBRANCH   1  12
TORSDOF 2
