REMARK  1 active torsions:
REMARK  status: ('A' for Active; 'I' for Inactive)
REMARK    1  A    between atoms: C3_4  and  N4_10 
ROOT
ATOM      1  C1  <0> d          -0.836  -2.272  -0.529  0.00  0.00    -0.041 C 
ATOM      2  C2  <0> d          -1.159  -0.891   0.026  0.00  0.00     0.020 C 
ATOM      3  N1  <0> d           0.002  -0.004   0.002  0.00  0.00    -0.155 N 
ATOM      4  C3  <0> d          -0.017   1.362   0.009  0.00  0.00     0.720 A 
ATOM      5  N2  <0> d           1.223   1.789  -0.000  0.00  0.00     0.044 NA
ATOM      6  N3  <0> d           2.069   0.669  -0.019  0.00  0.00    -0.108 NA
ATOM      7  C4  <0> d           1.317  -0.394  -0.023  0.00  0.00     0.205 A 
ATOM      8  S1  <0> d           1.831  -2.085  -0.062  0.00  0.00    -0.090 SA
ATOM      9  C5  <0> d           0.265  -2.946   0.300  0.00  0.00    -0.014 C 
ATOM     10  H1  <0> d          -1.735  -2.889  -0.503  0.00  0.00     0.036 H 
ATOM     11  H2  <0> d          -0.499  -2.174  -1.562  0.00  0.00     0.036 H 
ATOM     12  H3  <0> d          -1.505  -0.994   1.054  0.00  0.00     0.066 H 
ATOM     13  H4  <0> d          -1.956  -0.447  -0.572  0.00  0.00     0.066 H 
ATOM     14  H5  <0> d           0.032  -2.860   1.362  0.00  0.00     0.049 H 
ATOM     15  H6  <0> d           0.346  -3.997   0.023  0.00  0.00     0.049 H 
ENDROOT
BRANCH   4  16
ATOM     16  N4  <0> d          -1.153   2.161   0.019  0.00  0.00    -0.231 N 
ATOM     17  H7  <0> d          -2.033   1.753   0.022  0.00  0.00     0.174 HD
ATOM     18  H8  <0> d          -1.066   3.127   0.024  0.00  0.00     0.174 HD
ENDBRANCH   4  16
TORSDOF 1
