REMARK  4 active torsions:
REMARK  status: ('A' for Active; 'I' for Inactive)
REMARK    1  A    between atoms: C1_1  and  C2_2 
REMARK    2  A    between atoms: C2_2  and  O1_3 
REMARK    3  A    between atoms: O1_3  and  C3_4 
REMARK    4  A    between atoms: C3_4  and  N1_5 
ROOT
ATOM      1  C3  <0> d          -1.295  -0.603   0.011  0.00  0.00     0.084 C 
ATOM      2  H6  <0> d          -1.832  -0.294   0.908  0.00  0.00     0.107 H 
ATOM      3  H7  <0> d          -1.849  -0.284  -0.872  0.00  0.00     0.107 H 
ENDROOT
BRANCH   1   4
ATOM      4  O1  <0> d           0.002  -0.004   0.002  0.00  0.00    -0.372 OA
BRANCH   4   5
ATOM      5  C2  <0> d          -0.017   1.425   0.010  0.00  0.00     0.018 C 
ATOM      6  H4  <0> d          -0.544   1.786  -0.873  0.00  0.00     0.073 H 
ATOM      7  H5  <0> d          -0.527   1.776   0.907  0.00  0.00     0.073 H 
BRANCH   5   8
ATOM      8  C1  <0> d           1.418   1.954  -0.001  0.00  0.00    -0.056 C 
ATOM      9  H1  <0> d           1.403   3.044   0.005  0.00  0.00     0.030 H 
ATOM     10  H2  <0> d           1.945   1.593   0.882  0.00  0.00     0.030 H 
ATOM     11  H3  <0> d           1.928   1.603  -0.898  0.00  0.00     0.030 H 
ENDBRANCH   5   8
ENDBRANCH   4   5
ENDBRANCH   1   4
BRANCH   1  12
ATOM     12  N1  <0> d          -1.160  -2.062   0.002  0.00  0.00    -0.328 N 
ATOM     13  C6  <0> d          -1.076  -2.865   1.084  0.00  0.00     0.067 A 
ATOM     14  N2  <0> d          -0.965  -4.101   0.680  0.00  0.00    -0.255 NA
ATOM     15  H10 <0> d          -1.097  -2.539   2.113  0.00  0.00     0.143 H 
ATOM     16  C5  <0> d          -0.973  -4.130  -0.661  0.00  0.00     0.018 A 
ATOM     17  C4  <0> d          -1.101  -2.865  -1.105  0.00  0.00    -0.001 A 
ATOM     18  H9  <0> d          -0.897  -5.014  -1.278  0.00  0.00     0.117 H 
ATOM     19  H8  <0> d          -1.145  -2.545  -2.135  0.00  0.00     0.114 H 
ENDBRANCH   1  12
TORSDOF 4
