REMARK  1 active torsions:
REMARK  status: ('A' for Active; 'I' for Inactive)
REMARK    1  A    between atoms: C6_6  and  O1_7 
ROOT
ATOM      1  C1  <0> d          -1.199   1.744   0.017  0.00  0.00    -0.049 A 
ATOM      2  C2  <0> d          -0.013   1.076   0.008  0.00  0.00    -0.052 A 
ATOM      3  C3  <0> d           1.190   1.797   0.000  0.00  0.00     0.070 A 
ATOM      4  C4  <0> d           1.151   3.216   0.008  0.00  0.00     0.013 A 
ATOM      5  C5  <0> d          -0.085   3.876   0.024  0.00  0.00    -0.037 A 
ATOM      6  C6  <0> d          -1.239   3.141   0.031  0.00  0.00     0.066 A 
ATOM      7  C7  <0> d           2.372   3.916   0.000  0.00  0.00     0.016 A 
ATOM      8  N1  <0> d           3.491   3.221  -0.015  0.00  0.00    -0.253 NA
ATOM      9  C8  <0> d           3.486   1.896  -0.022  0.00  0.00     0.086 A 
ATOM     10  N2  <0> d           2.383   1.188  -0.015  0.00  0.00    -0.241 NA
ATOM     11  H1  <0> d          -2.123   1.186   0.018  0.00  0.00     0.087 H 
ATOM     12  H2  <0> d           0.002  -0.004   0.002  0.00  0.00     0.087 H 
ATOM     13  H3  <0> d          -0.127   4.955   0.030  0.00  0.00     0.089 H 
ATOM     14  H5  <0> d           2.390   4.996   0.005  0.00  0.00     0.116 H 
ATOM     15  H6  <0> d           4.433   1.376  -0.034  0.00  0.00     0.146 H 
ENDROOT
BRANCH   6  16
ATOM     16  O1  <0> d          -2.439   3.778   0.046  0.00  0.00    -0.361 OA
ATOM     17  H4  <0> d          -2.795   3.967  -0.833  0.00  0.00     0.217 HD
ENDBRANCH   6  16
TORSDOF 1
