REMARK  4 active torsions:
REMARK  status: ('A' for Active; 'I' for Inactive)
REMARK    1  A    between atoms: C1_1  and  C2_2 
REMARK    2  A    between atoms: C3_4  and  O4_13 
REMARK    3  A    between atoms: C4_6  and  O3_12 
REMARK    4  A    between atoms: C5_8  and  O2_11 
ROOT
ATOM      1  C2  <0> d           0.002  -0.004   0.002  0.00  0.00     0.065 C 
ATOM      2  H1  <0> d          -1.015  -0.396   0.022  0.00  0.00     0.086 H 
ATOM      3  C3  <0> d           0.754  -0.525  -1.248  0.00  0.00     0.089 C 
ATOM      4  H2  <0> d           0.083  -0.611  -2.103  0.00  0.00     0.091 H 
ATOM      5  C4  <0> d           1.214  -1.924  -0.755  0.00  0.00     0.110 C 
ATOM      6  H3  <0> d           2.125  -2.235  -1.266  0.00  0.00     0.094 H 
ATOM      7  C5  <0> d           1.484  -1.669   0.744  0.00  0.00     0.156 C 
ATOM      8  H4  <0> d           2.550  -1.507   0.905  0.00  0.00     0.133 H 
ATOM      9  O1  <0> d           0.749  -0.499   1.125  0.00  0.00    -0.351 OA
ENDROOT
BRANCH   1  10
ATOM     10  C1  <0> d          -0.019   1.526   0.010  0.00  0.00    -0.050 C 
ATOM     11  H5  <0> d           1.004   1.903   0.003  0.00  0.00     0.031 H 
ATOM     12  H6  <0> d          -0.546   1.887  -0.873  0.00  0.00     0.031 H 
ATOM     13  H7  <0> d          -0.529   1.877   0.907  0.00  0.00     0.031 H 
ENDBRANCH   1  10
BRANCH   3  14
ATOM     14  O4  <0> d           1.874   0.306  -1.559  0.00  0.00    -0.390 OA
ATOM     15  H10 <0> d           2.375   0.018  -2.335  0.00  0.00     0.210 HD
ENDBRANCH   3  14
BRANCH   7  16
ATOM     16  O2  <0> d           1.043  -2.790   1.513  0.00  0.00    -0.369 OA
ATOM     17  H8  <0> d           1.184  -2.694   2.465  0.00  0.00     0.212 HD
ENDBRANCH   7  16
BRANCH   5  18
ATOM     18  O3  <0> d           0.178  -2.892  -0.932  0.00  0.00    -0.388 OA
ATOM     19  H9  <0> d           0.417  -3.781  -0.638  0.00  0.00     0.210 HD
ENDBRANCH   5  18
TORSDOF 4
