REMARK  2 active torsions:
REMARK  status: ('A' for Active; 'I' for Inactive)
REMARK    1  A    between atoms: C1_1  and  C2_2 
REMARK    2  A    between atoms: C3_3  and  N3_9 
ROOT
ATOM      1  C2  <0> d           0.002  -0.004   0.002  0.00  0.00     0.041 A 
ATOM      2  C3  <0> d           0.006  -0.713  -1.199  0.00  0.00     0.133 A 
ATOM      3  N1  <0> d           0.025  -2.042  -1.163  0.00  0.00    -0.224 NA
ATOM      4  C4  <0> d           0.039  -2.685  -0.013  0.00  0.00     0.091 A 
ATOM      5  N2  <0> d           0.035  -2.047   1.140  0.00  0.00    -0.213 NA
ATOM      6  C5  <0> d           0.023  -0.720   1.187  0.00  0.00     0.220 A 
ATOM      7  F1  <0> d           0.025  -0.077   2.375  0.00  0.00    -0.183 F 
ATOM      8  H4  <0> d           0.054  -3.765  -0.015  0.00  0.00     0.146 H 
ENDROOT
BRANCH   1   9
ATOM      9  C1  <0> d          -0.018   1.503   0.010  0.00  0.00    -0.043 C 
ATOM     10  H1  <0> d           1.004   1.880   0.003  0.00  0.00     0.033 H 
ATOM     11  H2  <0> d          -0.545   1.864  -0.873  0.00  0.00     0.033 H 
ATOM     12  H3  <0> d          -0.529   1.854   0.907  0.00  0.00     0.033 H 
ENDBRANCH   1   9
BRANCH   2  13
ATOM     13  N3  <0> d          -0.009  -0.042  -2.412  0.00  0.00    -0.383 N 
ATOM     14  H5  <0> d          -0.023   0.928  -2.429  0.00  0.00     0.157 HD
ATOM     15  H6  <0> d          -0.006  -0.542  -3.243  0.00  0.00     0.157 HD
ENDBRANCH   2  13
TORSDOF 2
