REMARK  1 active torsions:
REMARK  status: ('A' for Active; 'I' for Inactive)
REMARK    1  A    between atoms: C3_3  and  O1_8 
ROOT
ATOM      1  C1  <0> d          -0.017   1.378   0.010  0.00  0.00    -0.079 A 
ATOM      2  C2  <0> d           1.170   2.087   0.002  0.00  0.00    -0.051 A 
ATOM      3  C3  <0> d           2.381   1.410  -0.013  0.00  0.00     0.067 A 
ATOM      4  C4  <0> d           2.398   0.023  -0.021  0.00  0.00    -0.030 A 
ATOM      5  C5  <0> d           1.209  -0.682  -0.013  0.00  0.00     0.036 A 
ATOM      6  C6  <0> d           0.002  -0.004   0.002  0.00  0.00    -0.062 A 
ATOM      7 Cl1  <0> d           1.229  -2.418  -0.023  0.00  0.00    -0.084 Cl
ATOM      8  H1  <0> d          -0.959   1.905   0.026  0.00  0.00     0.083 H 
ATOM      9  H2  <0> d           1.154   3.166   0.008  0.00  0.00     0.087 H 
ATOM     10  H3  <0> d           3.340  -0.506  -0.033  0.00  0.00     0.090 H 
ATOM     11  H4  <0> d          -0.926  -0.556   0.008  0.00  0.00     0.086 H 
ENDROOT
BRANCH   3  12
ATOM     12  O1  <0> d           3.548   2.105  -0.021  0.00  0.00    -0.361 OA
ATOM     13  H5  <0> d           3.895   2.302   0.860  0.00  0.00     0.217 HD
ENDBRANCH   3  12
TORSDOF 1
