REMARK  6 active torsions:
REMARK  status: ('A' for Active; 'I' for Inactive)
REMARK    1  A    between atoms: N2_4  and  C4_6 
REMARK    2  A    between atoms: C4_6  and  C5_7 
REMARK    3  A    between atoms: C5_7  and  O1_8 
REMARK    4  A    between atoms: O1_8  and  C6_9 
REMARK    5  A    between atoms: C6_9  and  C7_10 
REMARK    6  A    between atoms: C7_10  and  O2_11 
ROOT
ATOM      1  C5  <0> d           2.709  -1.987  -1.217  0.00  0.00     0.036 C 
ATOM      2  H6  <0> d           2.171  -1.780  -2.142  0.00  0.00     0.076 H 
ATOM      3  H7  <0> d           3.558  -1.310  -1.131  0.00  0.00     0.076 H 
ENDROOT
BRANCH   1   4
ATOM      4  C4  <0> d           1.771  -1.782  -0.025  0.00  0.00     0.036 C 
ATOM      5  H4  <0> d           2.309  -1.989   0.900  0.00  0.00     0.070 H 
ATOM      6  H5  <0> d           0.922  -2.460  -0.110  0.00  0.00     0.070 H 
BRANCH   4   7
ATOM      7  N2  <0> d           1.293  -0.398  -0.012  0.00  0.00    -0.279 N 
ATOM      8  N1  <0> d           2.094   0.751  -0.014  0.00  0.00    -0.185 NA
ATOM      9  C2  <0> d           1.308   1.797  -0.001  0.00  0.00     0.023 A 
ATOM     10  C1  <0> d          -0.016   1.349   0.009  0.00  0.00    -0.048 A 
ATOM     11  H2  <0> d           1.628   2.829   0.002  0.00  0.00     0.117 H 
ATOM     12  C3  <0> d           0.002  -0.004   0.002  0.00  0.00    -0.000 A 
ATOM     13  H1  <0> d          -0.898   1.972   0.025  0.00  0.00     0.087 H 
ATOM     14  H3  <0> d          -0.862  -0.653   0.007  0.00  0.00     0.114 H 
ENDBRANCH   4   7
ENDBRANCH   1   4
BRANCH   1  15
ATOM     15  O1  <0> d           3.175  -3.338  -1.229  0.00  0.00    -0.387 OA
BRANCH  15  16
ATOM     16  C6  <0> d           4.063  -3.636  -2.308  0.00  0.00     0.039 C 
ATOM     17  H8  <0> d           3.553  -3.464  -3.256  0.00  0.00     0.077 H 
ATOM     18  H9  <0> d           4.941  -2.993  -2.245  0.00  0.00     0.077 H 
BRANCH  16  19
ATOM     19  C7  <0> d           4.497  -5.101  -2.222  0.00  0.00     0.036 C 
ATOM     20  H10 <0> d           5.241  -5.306  -2.991  0.00  0.00     0.077 H 
ATOM     21  H11 <0> d           4.927  -5.295  -1.239  0.00  0.00     0.077 H 
BRANCH  19  22
ATOM     22  O2  <0> d           3.362  -5.947  -2.421  0.00  0.00    -0.399 OA
ATOM     23  H12 <0> d           3.563  -6.891  -2.379  0.00  0.00     0.209 HD
ENDBRANCH  19  22
ENDBRANCH  16  19
ENDBRANCH  15  16
ENDBRANCH   1  15
TORSDOF 6
