REMARK  1 active torsions:
REMARK  status: ('A' for Active; 'I' for Inactive)
REMARK    1  A    between atoms: C5_5  and  N1_7 
ROOT
ATOM      1  C1  <0> d          -0.017   1.378   0.010  0.00  0.00    -0.080 A 
ATOM      2  C2  <0> d           1.174   2.084   0.002  0.00  0.00    -0.074 A 
ATOM      3  C3  <0> d           2.376   1.410  -0.013  0.00  0.00    -0.020 A 
ATOM      4  C4  <0> d           2.414   0.024  -0.021  0.00  0.00     0.068 A 
ATOM      5  C5  <0> d           1.208  -0.686  -0.013  0.00  0.00     0.053 A 
ATOM      6  C6  <0> d           0.002  -0.004   0.002  0.00  0.00    -0.055 A 
ATOM      7  N2  <0> d           3.737  -0.424  -0.036  0.00  0.00    -0.324 N 
ATOM      8  C7  <0> d           4.617   0.592  -0.039  0.00  0.00     0.226 A 
ATOM      9  O1  <0> d           5.826   0.499  -0.051  0.00  0.00    -0.273 OA
ATOM     10  C8  <0> d           3.814   1.875  -0.025  0.00  0.00     0.035 A 
ATOM     11  H1  <0> d          -0.959   1.906   0.026  0.00  0.00     0.083 H 
ATOM     12  H2  <0> d           1.161   3.164   0.008  0.00  0.00     0.084 H 
ATOM     13  H3  <0> d          -0.927  -0.554   0.008  0.00  0.00     0.087 H 
ATOM     14  H6  <0> d           3.992  -1.360  -0.043  0.00  0.00     0.169 HD
ATOM     15  H7  <0> d           4.018   2.464  -0.919  0.00  0.00     0.054 H 
ATOM     16  H8  <0> d           4.035   2.454   0.873  0.00  0.00     0.054 H 
ENDROOT
BRANCH   5  17
ATOM     17  N1  <0> d           1.220  -2.085  -0.021  0.00  0.00    -0.397 N 
ATOM     18  H4  <0> d           2.064  -2.563  -0.032  0.00  0.00     0.156 HD
ATOM     19  H5  <0> d           0.384  -2.578  -0.016  0.00  0.00     0.156 HD
ENDBRANCH   5  17
TORSDOF 1
