REMARK  3 active torsions:
REMARK  status: ('A' for Active; 'I' for Inactive)
REMARK    1  A    between atoms: C4_5  and  C5_6 
REMARK    2  A    between atoms: C5_6  and  C6_7 
REMARK    3  A    between atoms: C6_7  and  O1_8 
ROOT
ATOM      1  C1  <0> d          -1.077   1.915   0.017  0.00  0.00    -0.070 A 
ATOM      2  C2  <0> d          -0.013   1.076   0.008  0.00  0.00    -0.045 A 
ATOM      3  S1  <0> d           1.359   2.219   0.001  0.00  0.00    -0.113 SA
ATOM      4  C3  <0> d           0.421   3.738   0.017  0.00  0.00    -0.039 A 
ATOM      5  C4  <0> d          -0.855   3.279   0.027  0.00  0.00    -0.049 A 
ATOM      6  H1  <0> d          -2.083   1.524   0.018  0.00  0.00     0.085 H 
ATOM      7  H2  <0> d           0.002  -0.004   0.002  0.00  0.00     0.095 H 
ATOM      8  H3  <0> d           0.777   4.757   0.019  0.00  0.00     0.095 H 
ENDROOT
BRANCH   5   9
ATOM      9  C5  <0> d          -2.014   4.243   0.042  0.00  0.00    -0.021 C 
ATOM     10  H4  <0> d          -2.857   3.788   0.561  0.00  0.00     0.043 H 
ATOM     11  H5  <0> d          -1.720   5.157   0.558  0.00  0.00     0.043 H 
BRANCH   9  12
ATOM     12  C6  <0> d          -2.419   4.576  -1.395  0.00  0.00     0.020 C 
ATOM     13  H6  <0> d          -1.575   5.031  -1.914  0.00  0.00     0.074 H 
ATOM     14  H7  <0> d          -2.713   3.662  -1.911  0.00  0.00     0.074 H 
BRANCH  12  15
ATOM     15  O1  <0> d          -3.517   5.490  -1.381  0.00  0.00    -0.401 OA
ATOM     16  H8  <0> d          -3.828   5.745  -2.260  0.00  0.00     0.209 HD
ENDBRANCH  12  15
ENDBRANCH   9  12
ENDBRANCH   5   9
TORSDOF 3
