REMARK  2 active torsions:
REMARK  status: ('A' for Active; 'I' for Inactive)
REMARK    1  A    between atoms: C3_4  and  N3_10 
REMARK    2  A    between atoms: C5_6  and  C6_7 
REMARK       I    between atoms: C6_7  and  N2_9 
ROOT
ATOM      1  C1  <0> d           1.194  -0.699  -0.013  0.00  0.00    -0.051 A 
ATOM      2  C2  <0> d           0.002  -0.004   0.002  0.00  0.00     0.005 A 
ATOM      3  N1  <0> d          -0.016   1.315   0.009  0.00  0.00    -0.244 NA
ATOM      4  C3  <0> d           1.098   2.030   0.003  0.00  0.00     0.121 A 
ATOM      5  C4  <0> d           2.341   1.408  -0.013  0.00  0.00    -0.024 A 
ATOM      6  C5  <0> d           2.399   0.014  -0.020  0.00  0.00     0.036 A 
ATOM      7  H1  <0> d           1.198  -1.779  -0.018  0.00  0.00     0.087 H 
ATOM      8  H2  <0> d          -0.931  -0.549   0.008  0.00  0.00     0.114 H 
ATOM      9  H3  <0> d           3.248   1.995  -0.018  0.00  0.00     0.090 H 
ENDROOT
BRANCH   6  10
ATOM     10  C6  <0> d           3.701  -0.693  -0.036  0.00  0.00     0.249 C 
ATOM     11  O1  <0> d           4.737  -0.058  -0.042  0.00  0.00    -0.268 OA
ATOM     12  N2  <0> d           3.736  -2.040  -0.042  0.00  0.00    -0.366 N 
ATOM     13  H4  <0> d           4.702  -2.566  -0.054  0.00  0.00     0.159 HD
ATOM     14  H5  <0> d           2.798  -2.615  -0.036  0.00  0.00     0.159 HD
ENDBRANCH   6  10
BRANCH   4  15
ATOM     15  N3  <0> d           1.023   3.418   0.010  0.00  0.00    -0.384 N 
ATOM     16  H6  <0> d           1.945   4.019   0.005  0.00  0.00     0.157 HD
ATOM     17  H7  <0> d           0.042   3.916   0.022  0.00  0.00     0.157 HD
ENDBRANCH   4  15
TORSDOF 2
