REMARK  0 active torsions:
REMARK  status: ('A' for Active; 'I' for Inactive)
ROOT
ATOM      1  C1  <0> d          -0.017   1.382   0.010  0.00  0.00    -0.032 A 
ATOM      2  C2  <0> d           1.187   2.064   0.002  0.00  0.00     0.004 A 
ATOM      3  N1  <0> d           2.336   1.416  -0.012  0.00  0.00    -0.271 NA
ATOM      4  C3  <0> d           2.397   0.096  -0.019  0.00  0.00     0.030 A 
ATOM      5  C4  <0> d           1.238  -0.656  -0.012  0.00  0.00     0.086 A 
ATOM      6  C5  <0> d           0.002  -0.004   0.002  0.00  0.00     0.099 A 
ATOM      7  O1  <0> d          -1.142  -0.731   0.006  0.00  0.00    -0.340 OA
ATOM      8  C6  <0> d          -1.110  -1.984  -0.683  0.00  0.00     0.100 C 
ATOM      9  C7  <0> d           0.144  -2.736  -0.317  0.00  0.00     0.246 C 
ATOM     10  O2  <0> d           0.139  -3.948  -0.290  0.00  0.00    -0.271 OA
ATOM     11  N2  <0> d           1.273  -2.056  -0.018  0.00  0.00    -0.322 N 
ATOM     12  H1  <0> d          -0.953   1.920   0.026  0.00  0.00     0.090 H 
ATOM     13  H2  <0> d           1.185   3.144   0.007  0.00  0.00     0.114 H 
ATOM     14  H3  <0> d           3.358  -0.397  -0.031  0.00  0.00     0.118 H 
ATOM     15  H4  <0> d          -1.982  -2.574  -0.402  0.00  0.00     0.089 H 
ATOM     16  H5  <0> d          -1.125  -1.806  -1.759  0.00  0.00     0.089 H 
ATOM     17  H6  <0> d           2.094  -2.530   0.188  0.00  0.00     0.169 HD
ENDROOT
TORSDOF 0
