REMARK  4 active torsions:
REMARK  status: ('A' for Active; 'I' for Inactive)
REMARK    1  A    between atoms: C1_1  and  C2_2 
REMARK    2  A    between atoms: C2_2  and  C3_3 
REMARK    3  A    between atoms: C2_2  and  C5_5 
REMARK    4  A    between atoms: C2_2  and  O1_11 
ROOT
ATOM      1  C3  <0> d           2.950   0.849   1.367  0.00  0.00    -0.074 C 
ATOM      2  C4  <0> d           3.306   0.659   2.470  0.00  0.00    -0.151 C 
ATOM      3  H4  <0> d           3.624   0.490   3.456  0.00  0.00     0.166 H 
ENDROOT
BRANCH   1   4
ATOM      4  C2  <0> d           2.504   1.086  -0.016  0.00  0.00     0.144 C 
BRANCH   4   5
ATOM      5  C1  <0> d           3.534   1.953  -0.742  0.00  0.00    -0.033 C 
ATOM      6  H1  <0> d           3.636   2.907  -0.224  0.00  0.00     0.033 H 
ATOM      7  H2  <0> d           4.496   1.441  -0.754  0.00  0.00     0.033 H 
ATOM      8  H3  <0> d           3.204   2.129  -1.766  0.00  0.00     0.033 H 
ENDBRANCH   4   5
BRANCH   4   9
ATOM      9  C5  <0> d           1.173   1.794   0.001  0.00  0.00    -0.009 A 
ATOM     10  C9  <0> d           1.106   3.179   0.009  0.00  0.00    -0.056 A 
ATOM     11  C8  <0> d          -0.132   3.793   0.024  0.00  0.00     0.002 A 
ATOM     12  H8  <0> d           2.010   3.770   0.003  0.00  0.00     0.086 H 
ATOM     13  N1  <0> d          -1.240   3.078   0.030  0.00  0.00    -0.273 NA
ATOM     14  H7  <0> d          -0.193   4.871   0.030  0.00  0.00     0.114 H 
ATOM     15  C7  <0> d          -1.214   1.759   0.017  0.00  0.00     0.002 A 
ATOM     16  C6  <0> d          -0.013   1.076   0.008  0.00  0.00    -0.056 A 
ATOM     17  H6  <0> d          -2.142   1.207   0.019  0.00  0.00     0.114 H 
ATOM     18  H5  <0> d           0.002  -0.004   0.002  0.00  0.00     0.086 H 
ENDBRANCH   4   9
BRANCH   4  19
ATOM     19  O1  <0> d           2.370  -0.164  -0.694  0.00  0.00    -0.373 OA
ATOM     20  H9  <0> d           1.732  -0.766  -0.288  0.00  0.00     0.212 HD
ENDBRANCH   4  19
ENDBRANCH   1   4
TORSDOF 4
