REMARK  2 active torsions:
REMARK  status: ('A' for Active; 'I' for Inactive)
REMARK    1  A    between atoms: C1_1  and  C2_2 
REMARK    2  A    between atoms: C2_2  and  C3_3 
ROOT
ATOM      1  C3  <0> d          -0.700   3.814   0.029  0.00  0.00     0.104 A 
ATOM      2  N1  <0> d          -1.131   2.533   0.021  0.00  0.00    -0.334 N 
ATOM      3  H1  <0> d          -2.210   2.316   0.021  0.00  0.00     0.168 HD
ATOM      4  C4  <0> d          -0.021   1.732   0.012  0.00  0.00     0.122 A 
ATOM      5  C5  <0> d           1.050   2.550   0.006  0.00  0.00     0.041 A 
ATOM      6  N2  <0> d           0.605   3.816   0.017  0.00  0.00    -0.244 NA
ATOM      7 Cl1  <0> d           0.002  -0.004   0.002  0.00  0.00    -0.063 Cl
ATOM      8  H7  <0> d           2.084   2.241  -0.005  0.00  0.00     0.119 H 
ENDROOT
BRANCH   1   9
ATOM      9  C2  <0> d          -1.580   5.037   0.044  0.00  0.00    -0.013 C 
ATOM     10  H5  <0> d          -2.632   4.731   0.143  0.00  0.00     0.043 H 
ATOM     11  H6  <0> d          -1.448   5.595  -0.894  0.00  0.00     0.043 H 
BRANCH   9  12
ATOM     12  C1  <0> d          -1.194   5.928   1.227  0.00  0.00    -0.070 C 
ATOM     13  H2  <0> d          -1.837   6.821   1.238  0.00  0.00     0.028 H 
ATOM     14  H3  <0> d          -0.143   6.234   1.128  0.00  0.00     0.028 H 
ATOM     15  H4  <0> d          -1.327   5.370   2.165  0.00  0.00     0.028 H 
ENDBRANCH   9  12
ENDBRANCH   1   9
TORSDOF 2
