REMARK  1 active torsions:
REMARK  status: ('A' for Active; 'I' for Inactive)
REMARK    1  A    between atoms: C4_5  and  N2_7 
ROOT
ATOM      1  C1  <0> d          -1.163  -2.092   0.002  0.00  0.00    -0.078 A 
ATOM      2  C2  <0> d           0.073  -2.725  -0.014  0.00  0.00    -0.066 A 
ATOM      3  C3  <0> d           1.223  -1.961  -0.021  0.00  0.00     0.004 A 
ATOM      4  N1  <0> d           1.160  -0.644  -0.018  0.00  0.00    -0.243 NA
ATOM      5  C4  <0> d           0.002  -0.004   0.002  0.00  0.00     0.133 A 
ATOM      6  C5  <0> d          -1.196  -0.709   0.010  0.00  0.00    -0.038 A 
ATOM      7  H1  <0> d          -2.077  -2.667   0.007  0.00  0.00     0.083 H 
ATOM      8  H2  <0> d           0.133  -3.803  -0.021  0.00  0.00     0.085 H 
ATOM      9  H3  <0> d           2.187  -2.449  -0.034  0.00  0.00     0.114 H 
ATOM     10  H4  <0> d          -2.139  -0.184   0.022  0.00  0.00     0.089 H 
ENDROOT
BRANCH   5  11
ATOM     11  N2  <0> d          -0.017   1.393   0.010  0.00  0.00    -0.318 N 
ATOM     12  C9  <0> d           1.082   2.206   0.004  0.00  0.00    -0.014 A 
ATOM     13  C8  <0> d           0.660   3.486   0.014  0.00  0.00    -0.066 A 
ATOM     14  H8  <0> d           2.111   1.878  -0.008  0.00  0.00     0.112 H 
ATOM     15  C7  <0> d          -0.750   3.466   0.027  0.00  0.00    -0.066 A 
ATOM     16  H7  <0> d           1.286   4.365   0.012  0.00  0.00     0.085 H 
ATOM     17  C6  <0> d          -1.138   2.175   0.019  0.00  0.00    -0.014 A 
ATOM     18  H6  <0> d          -1.400   4.329   0.037  0.00  0.00     0.085 H 
ATOM     19  H5  <0> d          -2.158   1.820   0.021  0.00  0.00     0.112 H 
ENDBRANCH   5  11
TORSDOF 1
