REMARK  1 active torsions:
REMARK  status: ('A' for Active; 'I' for Inactive)
REMARK    1  A    between atoms: C1_1  and  N1_2 
ROOT
ATOM      1  N1  <0> d          -0.017   1.367   0.010  0.00  0.00    -0.325 N 
ATOM      2  C2  <0> d           1.295   1.789  -0.001  0.00  0.00     0.065 A 
ATOM      3  C3  <0> d           1.907   3.036   0.000  0.00  0.00    -0.055 A 
ATOM      4  C4  <0> d           3.282   3.121  -0.013  0.00  0.00    -0.081 A 
ATOM      5  C5  <0> d           4.060   1.971  -0.026  0.00  0.00    -0.081 A 
ATOM      6  C6  <0> d           3.479   0.736  -0.028  0.00  0.00    -0.053 A 
ATOM      7  C7  <0> d           2.083   0.622  -0.015  0.00  0.00     0.086 A 
ATOM      8  N2  <0> d           1.242  -0.429  -0.012  0.00  0.00    -0.219 NA
ATOM      9  C8  <0> d           0.002  -0.004   0.002  0.00  0.00     0.213 A 
ATOM     10  C9  <0> d          -1.157  -0.844   0.008  0.00  0.00     0.139 C 
ATOM     11  N3  <0> d          -2.077  -1.511   0.013  0.00  0.00    -0.188 NA
ATOM     12  H4  <0> d           1.308   3.934   0.010  0.00  0.00     0.087 H 
ATOM     13  H5  <0> d           3.759   4.091  -0.011  0.00  0.00     0.083 H 
ATOM     14  H6  <0> d           5.137   2.054  -0.036  0.00  0.00     0.083 H 
ATOM     15  H7  <0> d           4.095  -0.151  -0.038  0.00  0.00     0.087 H 
ENDROOT
BRANCH   1  16
ATOM     16  C1  <0> d          -1.206   2.221   0.020  0.00  0.00    -0.011 C 
ATOM     17  H1  <0> d          -1.496   2.428   1.050  0.00  0.00     0.057 H 
ATOM     18  H2  <0> d          -0.985   3.159  -0.490  0.00  0.00     0.057 H 
ATOM     19  H3  <0> d          -2.023   1.713  -0.492  0.00  0.00     0.057 H 
ENDBRANCH   1  16
TORSDOF 1
