REMARK  1 active torsions:
REMARK  status: ('A' for Active; 'I' for Inactive)
REMARK    1  A    between atoms: C2_4  and  N4_9 
ROOT
ATOM      1  C1  <0> d           0.667   3.486   0.014  0.00  0.00     0.067 A 
ATOM      2  N1  <0> d          -0.696   3.524   0.027  0.00  0.00    -0.335 N 
ATOM      3  H1  <0> d          -1.264   4.347   0.040  0.00  0.00     0.168 HD
ATOM      4  C2  <0> d          -1.145   2.235   0.019  0.00  0.00     0.140 A 
ATOM      5  C3  <0> d          -0.017   1.428   0.010  0.00  0.00     0.181 A 
ATOM      6  N2  <0> d           1.067   2.249   0.004  0.00  0.00    -0.229 NA
ATOM      7  C4  <0> d           0.002  -0.004   0.002  0.00  0.00     0.123 C 
ATOM      8  N3  <0> d           0.018  -1.140  -0.004  0.00  0.00    -0.190 NA
ATOM      9  H2  <0> d           1.315   4.350   0.012  0.00  0.00     0.143 H 
ENDROOT
BRANCH   4  10
ATOM     10  N4  <0> d          -2.462   1.817   0.022  0.00  0.00    -0.383 N 
ATOM     11  H3  <0> d          -2.671   0.869   0.019  0.00  0.00     0.157 HD
ATOM     12  H4  <0> d          -3.179   2.471   0.029  0.00  0.00     0.157 HD
ENDBRANCH   4  10
TORSDOF 1
