REMARK  1 active torsions:
REMARK  status: ('A' for Active; 'I' for Inactive)
REMARK    1  A    between atoms: C3_4  and  C4_7 
REMARK       I    between atoms: C4_7  and  N3_9 
ROOT
ATOM      1  C1  <0> d          -4.587   0.381   0.026  0.00  0.00    -0.004 A 
ATOM      2  C2  <0> d          -3.862  -0.764   0.016  0.00  0.00     0.019 A 
ATOM      3  N1  <0> d          -2.571  -0.441   0.006  0.00  0.00    -0.237 NA
ATOM      4  C3  <0> d          -2.454   0.870   0.018  0.00  0.00     0.196 A 
ATOM      5  N2  <0> d          -3.708   1.411   0.027  0.00  0.00    -0.345 N 
ATOM      6  H1  <0> d          -3.935   2.385   0.034  0.00  0.00     0.167 HD
ATOM      7  H2  <0> d          -5.665   0.458   0.032  0.00  0.00     0.113 H 
ATOM      8  H3  <0> d          -4.263  -1.766   0.013  0.00  0.00     0.117 H 
ENDROOT
BRANCH   4   9
ATOM      9  C4  <0> d          -1.187   1.624   0.017  0.00  0.00     0.285 C 
ATOM     10  O1  <0> d          -1.204   2.840   0.023  0.00  0.00    -0.264 OA
ATOM     11  N3  <0> d          -0.011   0.966   0.007  0.00  0.00    -0.363 N 
ATOM     12  H4  <0> d           0.002  -0.004   0.002  0.00  0.00     0.159 HD
ATOM     13  H5  <0> d           0.822   1.462   0.002  0.00  0.00     0.159 HD
ENDBRANCH   4   9
TORSDOF 1
