REMARK  2 active torsions:
REMARK  status: ('A' for Active; 'I' for Inactive)
REMARK    1  A    between atoms: C4_4  and  C7_7 
REMARK    2  A    between atoms: C8_8  and  C9_9 
ROOT
ATOM      1  C1  <0> d          -0.017   1.380   0.010  0.00  0.00    -0.083 A 
ATOM      2  C2  <0> d           1.168   2.095   0.002  0.00  0.00    -0.082 A 
ATOM      3  C3  <0> d           2.377   1.433  -0.013  0.00  0.00    -0.065 A 
ATOM      4  C4  <0> d           2.405   0.035  -0.021  0.00  0.00     0.018 A 
ATOM      5  C5  <0> d           1.203  -0.681  -0.013  0.00  0.00    -0.065 A 
ATOM      6  C6  <0> d           0.002  -0.004   0.002  0.00  0.00    -0.082 A 
ATOM      7  H1  <0> d          -0.961   1.904   0.017  0.00  0.00     0.083 H 
ATOM      8  H2  <0> d           1.145   3.175   0.008  0.00  0.00     0.083 H 
ATOM      9  H3  <0> d           3.301   1.993  -0.019  0.00  0.00     0.085 H 
ATOM     10  H4  <0> d           1.216  -1.761  -0.019  0.00  0.00     0.085 H 
ATOM     11  H5  <0> d          -0.927  -0.555   0.008  0.00  0.00     0.083 H 
ENDROOT
BRANCH   4  12
ATOM     12  C7  <0> d           3.657  -0.660  -0.038  0.00  0.00    -0.056 C 
ATOM     13  C8  <0> d           4.683  -1.230  -0.051  0.00  0.00     0.010 C 
BRANCH  13  14
ATOM     14  C9  <0> d           5.935  -1.925  -0.068  0.00  0.00     0.258 C 
ATOM     15  O1  <0> d           6.978  -1.300  -0.074  0.00  0.00    -0.637 OA
ATOM     16  O2  <0> d           5.957  -3.274  -0.076  0.00  0.00    -0.637 OA
ENDBRANCH  13  14
ENDBRANCH   4  12
TORSDOF 2
