REMARK  0 active torsions:
REMARK  status: ('A' for Active; 'I' for Inactive)
ROOT
ATOM      1  C1  <0> d           1.169   2.438   0.004  0.00  0.00    -0.061 A 
ATOM      2  C2  <0> d           1.148   3.820   0.012  0.00  0.00    -0.073 A 
ATOM      3  C3  <0> d          -0.057   4.496   0.026  0.00  0.00    -0.030 A 
ATOM      4  C4  <0> d          -1.255   3.799   0.034  0.00  0.00     0.036 A 
ATOM      5  C5  <0> d          -1.227   2.403   0.021  0.00  0.00    -0.036 A 
ATOM      6  C6  <0> d          -0.021   1.732   0.012  0.00  0.00     0.036 A 
ATOM      7 Cl1  <0> d           0.002  -0.004   0.002  0.00  0.00    -0.084 Cl
ATOM      8  N1  <0> d          -2.352   4.662   0.049  0.00  0.00    -0.389 N 
ATOM      9  C7  <0> d          -1.898   6.054   0.051  0.00  0.00    -0.004 A 
ATOM     10  C8  <0> d          -0.362   5.977   0.037  0.00  0.00    -0.024 A 
ATOM     11  H1  <0> d           2.111   1.910  -0.008  0.00  0.00     0.086 H 
ATOM     12  H2  <0> d           2.076   4.373   0.006  0.00  0.00     0.084 H 
ATOM     13  H3  <0> d          -2.152   1.847   0.022  0.00  0.00     0.089 H 
ATOM     14  H4  <0> d          -3.280   4.380   0.056  0.00  0.00     0.159 HD
ATOM     15  H5  <0> d          -2.259   6.572  -0.837  0.00  0.00     0.064 H 
ATOM     16  H6  <0> d          -2.244   6.563   0.951  0.00  0.00     0.064 H 
ATOM     17  H7  <0> d           0.051   6.445   0.931  0.00  0.00     0.042 H 
ATOM     18  H8  <0> d           0.034   6.454  -0.860  0.00  0.00     0.042 H 
ENDROOT
TORSDOF 0
