REMARK  6 active torsions:
REMARK  status: ('A' for Active; 'I' for Inactive)
REMARK    1  A    between atoms: C1_1  and  C2_2 
REMARK    2  A    between atoms: C2_2  and  O1_3 
REMARK    3  A    between atoms: O1_3  and  C3_4 
REMARK    4  A    between atoms: C3_4  and  C6_8 
REMARK    5  A    between atoms: C4_5  and  C5_6 
REMARK    6  A    between atoms: C5_6  and  O2_7 
ROOT
ATOM      1  C3  <0> d           1.824   3.781   0.879  0.00  0.00     0.040 C 
ATOM      2  C4  <0> d           1.295   3.108  -0.122  0.00  0.00    -0.053 C 
ATOM      3  H6  <0> d           0.654   3.610  -0.831  0.00  0.00     0.083 H 
ENDROOT
BRANCH   1   4
ATOM      4  O1  <0> d           1.470   5.074   1.089  0.00  0.00    -0.356 OA
BRANCH   4   5
ATOM      5  C2  <0> d           0.519   5.641   0.186  0.00  0.00     0.022 C 
ATOM      6  H4  <0> d           0.916   5.607  -0.829  0.00  0.00     0.074 H 
ATOM      7  H5  <0> d          -0.410   5.072   0.232  0.00  0.00     0.074 H 
BRANCH   5   8
ATOM      8  C1  <0> d           0.246   7.094   0.579  0.00  0.00    -0.056 C 
ATOM      9  H1  <0> d          -0.479   7.527  -0.110  0.00  0.00     0.030 H 
ATOM     10  H2  <0> d          -0.150   7.128   1.593  0.00  0.00     0.030 H 
ATOM     11  H3  <0> d           1.175   7.663   0.532  0.00  0.00     0.030 H 
ENDBRANCH   5   8
ENDBRANCH   4   5
ENDBRANCH   1   4
BRANCH   1  12
ATOM     12  C6  <0> d           2.823   3.116   1.790  0.00  0.00    -0.032 C 
ATOM     13  H10 <0> d           3.641   2.708   1.197  0.00  0.00     0.036 H 
ATOM     14  H11 <0> d           3.216   3.848   2.495  0.00  0.00     0.036 H 
ATOM     15  H12 <0> d           2.334   2.310   2.338  0.00  0.00     0.036 H 
ENDBRANCH   1  12
BRANCH   2  16
ATOM     16  C5  <0> d           1.585   1.637  -0.277  0.00  0.00     0.034 C 
ATOM     17  H7  <0> d           2.010   1.251   0.649  0.00  0.00     0.080 H 
ATOM     18  H8  <0> d           2.294   1.490  -1.091  0.00  0.00     0.080 H 
BRANCH  16  19
ATOM     19  O2  <0> d           0.371   0.941  -0.569  0.00  0.00    -0.397 OA
ATOM     20  H9  <0> d           0.482  -0.013  -0.682  0.00  0.00     0.209 HD
ENDBRANCH  16  19
ENDBRANCH   2  16
TORSDOF 6
