REMARK  2 active torsions:
REMARK  status: ('A' for Active; 'I' for Inactive)
REMARK    1  A    between atoms: C1_1  and  C2_2 
REMARK    2  A    between atoms: C3_3  and  C5_8 
ROOT
ATOM      1  C2  <0> d           0.002  -0.004   0.002  0.00  0.00     0.063 A 
ATOM      2  C3  <0> d           0.008  -0.825  -1.143  0.00  0.00     0.017 A 
ATOM      3  C4  <0> d           0.028  -2.122  -0.719  0.00  0.00     0.008 A 
ATOM      4  N1  <0> d           0.034  -2.110   0.629  0.00  0.00    -0.288 N 
ATOM      5  H1  <0> d           0.047  -2.891   1.204  0.00  0.00     0.188 HD
ATOM      6  N2  <0> d           0.023  -0.777   1.056  0.00  0.00    -0.179 NA
ATOM      7  H5  <0> d           0.036  -2.998  -1.350  0.00  0.00     0.115 H 
ENDROOT
BRANCH   2   8
ATOM      8  C5  <0> d          -0.005  -0.362  -2.554  0.00  0.00    -0.022 A 
ATOM      9  C10 <0> d           0.921  -0.868  -3.463  0.00  0.00    -0.072 A 
ATOM     10  C9  <0> d           0.901  -0.439  -4.775  0.00  0.00    -0.082 A 
ATOM     11  H10 <0> d           1.650  -1.598  -3.144  0.00  0.00     0.084 H 
ATOM     12  C8  <0> d          -0.029   0.500  -5.184  0.00  0.00    -0.083 A 
ATOM     13  H9  <0> d           1.615  -0.834  -5.482  0.00  0.00     0.083 H 
ATOM     14  C7  <0> d          -0.947   1.009  -4.284  0.00  0.00    -0.082 A 
ATOM     15  H8  <0> d          -0.038   0.836  -6.210  0.00  0.00     0.083 H 
ATOM     16  C6  <0> d          -0.940   0.583  -2.971  0.00  0.00    -0.072 A 
ATOM     17  H7  <0> d          -1.671   1.742  -4.608  0.00  0.00     0.083 H 
ATOM     18  H6  <0> d          -1.657   0.980  -2.269  0.00  0.00     0.084 H 
ENDBRANCH   2   8
BRANCH   1  19
ATOM     19  C1  <0> d          -0.018   1.503   0.010  0.00  0.00    -0.033 C 
ATOM     20  H2  <0> d           1.004   1.880   0.003  0.00  0.00     0.035 H 
ATOM     21  H3  <0> d          -0.545   1.864  -0.873  0.00  0.00     0.035 H 
ATOM     22  H4  <0> d          -0.529   1.854   0.907  0.00  0.00     0.035 H 
ENDBRANCH   1  19
TORSDOF 2
