REMARK  2 active torsions:
REMARK  status: ('A' for Active; 'I' for Inactive)
REMARK    1  A    between atoms: C2_2  and  C3_3 
REMARK    2  A    between atoms: C8_8  and  O1_9 
ROOT
ATOM      1  C1  <0> d           0.018  -1.178  -0.004  0.00  0.00    -0.149 C 
ATOM      2  C2  <0> d           0.002  -0.004   0.002  0.00  0.00    -0.075 C 
ATOM      3  H1  <0> d           0.032  -2.228  -0.010  0.00  0.00     0.166 H 
ENDROOT
BRANCH   2   4
ATOM      4  C3  <0> d          -0.017   1.428   0.010  0.00  0.00     0.050 A 
ATOM      5  C8  <0> d           1.183   2.148   0.002  0.00  0.00     0.084 A 
ATOM      6  C7  <0> d           1.154   3.533   0.009  0.00  0.00    -0.050 A 
ATOM      7  C6  <0> d          -0.056   4.200   0.024  0.00  0.00    -0.080 A 
ATOM      8  H5  <0> d           2.078   4.092   0.003  0.00  0.00     0.087 H 
ATOM      9  C5  <0> d          -1.245   3.492   0.032  0.00  0.00    -0.081 A 
ATOM     10  H4  <0> d          -0.074   5.280   0.029  0.00  0.00     0.083 H 
ATOM     11  C4  <0> d          -1.233   2.112   0.019  0.00  0.00    -0.062 A 
ATOM     12  H3  <0> d          -2.187   4.021   0.043  0.00  0.00     0.083 H 
ATOM     13  H2  <0> d          -2.163   1.563   0.021  0.00  0.00     0.085 H 
BRANCH   5  14
ATOM     14  O1  <0> d           2.372   1.491  -0.013  0.00  0.00    -0.359 OA
ATOM     15  H6  <0> d           2.708   1.306  -0.900  0.00  0.00     0.217 HD
ENDBRANCH   5  14
ENDBRANCH   2   4
TORSDOF 2
