REMARK  2 active torsions:
REMARK  status: ('A' for Active; 'I' for Inactive)
REMARK    1  A    between atoms: C1_1  and  C2_2 
REMARK    2  A    between atoms: N1_8  and  C7_9 
ROOT
ATOM      1  C2  <0> d           0.017   1.784   2.342  0.00  0.00     0.010 A 
ATOM      2  C3  <0> d          -0.582   2.221   3.478  0.00  0.00    -0.060 A 
ATOM      3  C4  <0> d          -1.959   2.449   3.502  0.00  0.00    -0.056 A 
ATOM      4  C5  <0> d          -2.700   2.219   2.346  0.00  0.00     0.112 A 
ATOM      5  C6  <0> d          -2.028   1.766   1.180  0.00  0.00     0.268 A 
ATOM      6  O1  <0> d          -2.654   1.563   0.154  0.00  0.00    -0.266 OA
ATOM      7  N1  <0> d          -0.698   1.558   1.213  0.00  0.00    -0.322 N 
ATOM      8  C8  <0> d          -4.115   2.441   2.331  0.00  0.00     0.105 C 
ATOM      9  N2  <0> d          -5.237   2.618   2.320  0.00  0.00    -0.191 NA
ATOM     10  H4  <0> d           0.008   2.394   4.366  0.00  0.00     0.086 H 
ATOM     11  H5  <0> d          -2.442   2.797   4.403  0.00  0.00     0.086 H 
ENDROOT
BRANCH   7  12
ATOM     12  C7  <0> d          -0.013   1.086   0.008  0.00  0.00    -0.011 C 
ATOM     13  H6  <0> d          -0.744   0.958  -0.804  0.00  0.00     0.057 H 
ATOM     14  H7  <0> d           0.475   0.122   0.217  0.00  0.00     0.057 H 
ATOM     15  H8  <0> d           0.746   1.822  -0.295  0.00  0.00     0.057 H 
ENDBRANCH   7  12
BRANCH   1  16
ATOM     16  C1  <0> d           1.504   1.544   2.335  0.00  0.00    -0.037 C 
ATOM     17  H1  <0> d           1.918   1.777   3.328  0.00  0.00     0.035 H 
ATOM     18  H2  <0> d           1.976   2.191   1.581  0.00  0.00     0.035 H 
ATOM     19  H3  <0> d           1.705   0.490   2.093  0.00  0.00     0.035 H 
ENDBRANCH   1  16
TORSDOF 2
