REMARK  3 active torsions:
REMARK  status: ('A' for Active; 'I' for Inactive)
REMARK    1  A    between atoms: C1_1  and  C2_2 
REMARK    2  A    between atoms: C3_3  and  C8_9 
REMARK    3  A    between atoms: C7_7  and  O1_8 
ROOT
ATOM      1  C2  <0> d           2.374   1.442  -0.005  0.00  0.00    -0.012 A 
ATOM      2  C3  <0> d           1.151   2.066  -0.258  0.00  0.00     0.049 A 
ATOM      3  C4  <0> d          -0.024   1.312  -0.257  0.00  0.00    -0.066 A 
ATOM      4  C5  <0> d           0.026  -0.044  -0.006  0.00  0.00    -0.079 A 
ATOM      5  C6  <0> d           1.238  -0.660   0.244  0.00  0.00    -0.050 A 
ATOM      6  C7  <0> d           2.413   0.081   0.245  0.00  0.00     0.072 A 
ATOM      7  H4  <0> d          -0.972   1.790  -0.457  0.00  0.00     0.085 H 
ATOM      8  H5  <0> d          -0.884  -0.625  -0.006  0.00  0.00     0.083 H 
ATOM      9  H6  <0> d           1.272  -1.722   0.440  0.00  0.00     0.087 H 
ENDROOT
BRANCH   1  10
ATOM     10  C1  <0> d           3.647   2.247  -0.004  0.00  0.00    -0.048 C 
ATOM     11  H1  <0> d           4.008   2.358  -1.026  0.00  0.00     0.033 H 
ATOM     12  H2  <0> d           3.454   3.232   0.423  0.00  0.00     0.033 H 
ATOM     13  H3  <0> d           4.401   1.734   0.593  0.00  0.00     0.033 H 
ENDBRANCH   1  10
BRANCH   6  14
ATOM     14  O1  <0> d           3.601  -0.531   0.492  0.00  0.00    -0.360 OA
ATOM     15  H7  <0> d           4.044  -0.864  -0.300  0.00  0.00     0.217 HD
ENDBRANCH   6  14
BRANCH   2  16
ATOM     16  C8  <0> d           1.101   3.517  -0.527  0.00  0.00     0.210 C 
ATOM     17  O2  <0> d           2.132   4.150  -0.639  0.00  0.00    -0.644 OA
ATOM     18  O3  <0> d          -0.088   4.139  -0.647  0.00  0.00    -0.644 OA
ENDBRANCH   2  16
TORSDOF 3
