REMARK  1 active torsions:
REMARK  status: ('A' for Active; 'I' for Inactive)
REMARK    1  A    between atoms: C1_1  and  C2_2 
ROOT
ATOM      1  C2  <0> d           0.002  -0.004   0.002  0.00  0.00     0.092 C 
ATOM      2  H1  <0> d          -0.046  -0.352   0.938  0.00  0.00     0.094 H 
ATOM      3  C3  <0> d           1.300  -0.443  -0.647  0.00  0.00     0.157 C 
ATOM      4  O1  <0> d           1.671  -1.572  -0.864  0.00  0.00    -0.295 OA
ATOM      5  C4  <0> d           2.035   0.854  -0.966  0.00  0.00     0.013 C 
ATOM      6  C5  <0> d           1.362   1.862  -0.001  0.00  0.00     0.027 C 
ATOM      7  O2  <0> d          -0.017   1.433   0.010  0.00  0.00    -0.378 OA
ATOM      8  H5  <0> d           3.014   0.732  -0.800  0.00  0.00     0.047 H 
ATOM      9  H6  <0> d           1.878   1.143  -2.005  0.00  0.00     0.047 H 
ATOM     10  H7  <0> d           1.447   2.878  -0.385  0.00  0.00     0.075 H 
ATOM     11  H8  <0> d           1.796   1.788   0.996  0.00  0.00     0.075 H 
ENDROOT
BRANCH   1  12
ATOM     12  C1  <0> d          -1.187  -0.535  -0.801  0.00  0.00    -0.046 C 
ATOM     13  H2  <0> d          -1.140  -0.147  -1.819  0.00  0.00     0.031 H 
ATOM     14  H3  <0> d          -1.152  -1.624  -0.826  0.00  0.00     0.031 H 
ATOM     15  H4  <0> d          -2.116  -0.211  -0.332  0.00  0.00     0.031 H 
ENDBRANCH   1  12
TORSDOF 1
