REMARK  5 active torsions:
REMARK  status: ('A' for Active; 'I' for Inactive)
REMARK    1  A    between atoms: C1_1  and  C2_2 
REMARK    2  A    between atoms: C5_6  and  C8_12 
REMARK    3  A    between atoms: C6_8  and  O1_11 
REMARK    4  A    between atoms: C8_12  and  C9_14 
REMARK    5  A    between atoms: C8_12  and  C10_15 
ROOT
ATOM      1  C2  <0> d           2.861   1.635  -1.746  0.00  0.00    -0.055 C 
ATOM      2  H1  <0> d           3.224   1.309  -2.721  0.00  0.00     0.039 H 
ATOM      3  C3  <0> d           2.818   3.163  -1.702  0.00  0.00    -0.061 C 
ATOM      4  C4  <0> d           2.308   3.619  -0.333  0.00  0.00    -0.059 C 
ATOM      5  C5  <0> d           0.902   3.063  -0.102  0.00  0.00    -0.026 C 
ATOM      6  H2  <0> d           0.233   3.431  -0.880  0.00  0.00     0.044 H 
ATOM      7  C6  <0> d           0.944   1.534  -0.146  0.00  0.00     0.040 C 
ATOM      8  H3  <0> d           1.613   1.167   0.632  0.00  0.00     0.083 H 
ATOM      9  C7  <0> d           1.454   1.078  -1.515  0.00  0.00    -0.038 C 
ATOM     10  H8  <0> d           2.150   3.531  -2.480  0.00  0.00     0.033 H 
ATOM     11  H9  <0> d           3.820   3.559  -1.866  0.00  0.00     0.033 H 
ATOM     12  H10 <0> d           2.278   4.709  -0.301  0.00  0.00     0.033 H 
ATOM     13  H11 <0> d           2.977   3.252   0.445  0.00  0.00     0.033 H 
ATOM     14  H12 <0> d           1.484  -0.011  -1.547  0.00  0.00     0.037 H 
ATOM     15  H13 <0> d           0.786   1.446  -2.293  0.00  0.00     0.037 H 
ENDROOT
BRANCH   5  16
ATOM     16  C8  <0> d           0.392   3.519   1.266  0.00  0.00    -0.055 C 
ATOM     17  H4  <0> d          -0.579   3.063   1.463  0.00  0.00     0.039 H 
BRANCH  16  18
ATOM     18  C9  <0> d           0.250   5.043   1.276  0.00  0.00    -0.073 C 
ATOM     19  H15 <0> d           1.235   5.500   1.179  0.00  0.00     0.028 H 
ATOM     20  H16 <0> d          -0.379   5.355   0.442  0.00  0.00     0.028 H 
ATOM     21  H17 <0> d          -0.207   5.359   2.214  0.00  0.00     0.028 H 
ENDBRANCH  16  18
BRANCH  16  22
ATOM     22  C10 <0> d           1.385   3.093   2.349  0.00  0.00    -0.073 C 
ATOM     23  H18 <0> d           2.355   3.549   2.153  0.00  0.00     0.028 H 
ATOM     24  H19 <0> d           1.021   3.418   3.324  0.00  0.00     0.028 H 
ATOM     25  H20 <0> d           1.485   2.007   2.343  0.00  0.00     0.028 H 
ENDBRANCH  16  22
ENDBRANCH   5  16
BRANCH   7  26
ATOM     26  O1  <0> d          -0.369   1.015   0.070  0.00  0.00    -0.395 OA
ATOM     27  H14 <0> d          -0.418   0.049   0.054  0.00  0.00     0.210 HD
ENDBRANCH   7  26
BRANCH   1  28
ATOM     28  C1  <0> d           3.799   1.118  -0.654  0.00  0.00    -0.073 C 
ATOM     29  H5  <0> d           3.436   1.443   0.321  0.00  0.00     0.028 H 
ATOM     30  H6  <0> d           3.830   0.029  -0.686  0.00  0.00     0.028 H 
ATOM     31  H7  <0> d           4.801   1.514  -0.819  0.00  0.00     0.028 H 
ENDBRANCH   1  28
TORSDOF 5
