REMARK  3 active torsions:
REMARK  status: ('A' for Active; 'I' for Inactive)
REMARK    1  A    between atoms: C1_1  and  C2_2 
REMARK    2  A    between atoms: C2_2  and  C3_3 
REMARK    3  A    between atoms: C3_3  and  C4_5 
ROOT
ATOM      1  C4  <0> d          -1.297   1.926   0.019  0.00  0.00     0.010 A 
ATOM      2  C5  <0> d          -1.320   3.325   0.032  0.00  0.00    -0.067 A 
ATOM      3  C6  <0> d          -2.526   3.992   0.035  0.00  0.00    -0.045 A 
ATOM      4  C7  <0> d          -3.716   3.279   0.037  0.00  0.00     0.116 A 
ATOM      5  C8  <0> d          -3.700   1.892   0.030  0.00  0.00    -0.045 A 
ATOM      6  C9  <0> d          -2.502   1.213   0.021  0.00  0.00    -0.067 A 
ATOM      7  F1  <0> d          -4.894   3.938   0.046  0.00  0.00    -0.206 F 
ATOM      8  H6  <0> d          -0.394   3.881   0.035  0.00  0.00     0.085 H 
ATOM      9  H7  <0> d          -2.544   5.072   0.040  0.00  0.00     0.088 H 
ATOM     10  H8  <0> d          -4.630   1.343   0.031  0.00  0.00     0.088 H 
ATOM     11  H9  <0> d          -2.491   0.133   0.014  0.00  0.00     0.085 H 
ENDROOT
BRANCH   1  12
ATOM     12  C3  <0> d          -0.014   1.208   0.009  0.00  0.00     0.159 C 
ATOM     13  O1  <0> d           0.002  -0.004   0.002  0.00  0.00    -0.292 OA
BRANCH  12  14
ATOM     14  C2  <0> d           1.280   1.980   0.001  0.00  0.00    -0.008 C 
ATOM     15  H4  <0> d           1.318   2.560  -0.813  0.00  0.00     0.044 H 
ATOM     16  H5  <0> d           1.338   2.602   0.893  0.00  0.00     0.044 H 
BRANCH  14  17
ATOM     17  C1  <0> d           2.457   1.001  -0.016  0.00  0.00    -0.070 C 
ATOM     18  H1  <0> d           3.393   1.559  -0.022  0.00  0.00     0.028 H 
ATOM     19  H2  <0> d           2.416   0.369   0.871  0.00  0.00     0.028 H 
ATOM     20  H3  <0> d           2.399   0.379  -0.909  0.00  0.00     0.028 H 
ENDBRANCH  14  17
ENDBRANCH  12  14
ENDBRANCH   1  12
TORSDOF 3
