REMARK  0 active torsions:
REMARK  status: ('A' for Active; 'I' for Inactive)
ROOT
ATOM      1  C1  <0> d           1.159   3.299   0.008  0.00  0.00    -0.055 A 
ATOM      2  C2  <0> d           1.193   1.935   0.001  0.00  0.00    -0.016 A 
ATOM      3  C3  <0> d          -0.015   1.216   0.009  0.00  0.00     0.245 A 
ATOM      4  O1  <0> d           0.002  -0.004   0.002  0.00  0.00    -0.268 OA
ATOM      5  N1  <0> d          -1.190   1.873   0.018  0.00  0.00    -0.332 N 
ATOM      6  H1  <0> d          -2.135   1.310   0.015  0.00  0.00     0.168 HD
ATOM      7  C4  <0> d          -1.227   3.231   0.030  0.00  0.00     0.001 A 
ATOM      8  C5  <0> d          -0.081   3.954   0.023  0.00  0.00     0.049 A 
ATOM      9 Cl1  <0> d          -0.148   5.688   0.032  0.00  0.00    -0.083 Cl
ATOM     10  H2  <0> d           2.077   3.868   0.002  0.00  0.00     0.086 H 
ATOM     11  H3  <0> d           2.139   1.413  -0.010  0.00  0.00     0.092 H 
ATOM     12  H4  <0> d          -2.179   3.740   0.041  0.00  0.00     0.114 H 
ENDROOT
TORSDOF 0
