REMARK  2 active torsions:
REMARK  status: ('A' for Active; 'I' for Inactive)
REMARK    1  A    between atoms: C4_6  and  C5_8 
REMARK    2  A    between atoms: C5_8  and  O2_9 
ROOT
ATOM      1  C1  <0> d           1.465   1.896  -0.002  0.00  0.00    -0.036 C 
ATOM      2  C2  <0> d           2.144   0.675  -0.664  0.00  0.00     0.011 C 
ATOM      3  C3  <0> d           1.203  -0.474  -0.379  0.00  0.00     0.218 C 
ATOM      4  O1  <0> d           1.489  -1.648  -0.478  0.00  0.00    -0.274 OA
ATOM      5  N1  <0> d           0.002  -0.004   0.002  0.00  0.00    -0.354 N 
ATOM      6  C4  <0> d          -0.018   1.463   0.010  0.00  0.00     0.033 C 
ATOM      7  H1  <0> d          -0.510   1.829   0.911  0.00  0.00     0.075 H 
ATOM      8  H2  <0> d           1.605   2.794  -0.603  0.00  0.00     0.036 H 
ATOM      9  H3  <0> d           1.836   2.046   1.012  0.00  0.00     0.036 H 
ATOM     10  H4  <0> d           3.120   0.490  -0.214  0.00  0.00     0.047 H 
ATOM     11  H5  <0> d           2.244   0.828  -1.739  0.00  0.00     0.047 H 
ATOM     12  H6  <0> d          -0.754  -0.563   0.240  0.00  0.00     0.162 HD
ENDROOT
BRANCH   6  13
ATOM     13  C5  <0> d          -0.733   1.990  -1.236  0.00  0.00     0.035 C 
ATOM     14  H7  <0> d          -0.641   3.075  -1.276  0.00  0.00     0.077 H 
ATOM     15  H8  <0> d          -0.280   1.554  -2.126  0.00  0.00     0.077 H 
BRANCH  13  16
ATOM     16  O2  <0> d          -2.115   1.631  -1.179  0.00  0.00    -0.399 OA
ATOM     17  H9  <0> d          -2.631   1.933  -1.939  0.00  0.00     0.209 HD
ENDBRANCH  13  16
ENDBRANCH   6  13
TORSDOF 2
