REMARK  2 active torsions:
REMARK  status: ('A' for Active; 'I' for Inactive)
REMARK    1  A    between atoms: C3_3  and  C5_6 
REMARK    2  A    between atoms: C5_6  and  O2_7 
ROOT
ATOM      1  C1  <0> d          -3.410  -1.257  -0.604  0.00  0.00    -0.059 A 
ATOM      2  C2  <0> d          -2.160  -0.792  -1.073  0.00  0.00    -0.050 A 
ATOM      3  C3  <0> d          -1.412  -0.526   0.013  0.00  0.00     0.075 A 
ATOM      4  O1  <0> d          -2.136  -0.809   1.108  0.00  0.00    -0.325 OA
ATOM      5  C4  <0> d          -3.351  -1.248   0.740  0.00  0.00     0.019 A 
ATOM      6  H1  <0> d          -4.252  -1.562  -1.209  0.00  0.00     0.086 H 
ATOM      7  H2  <0> d          -1.863  -0.673  -2.104  0.00  0.00     0.087 H 
ATOM      8  H3  <0> d          -4.144  -1.546   1.409  0.00  0.00     0.123 H 
ENDROOT
BRANCH   3   9
ATOM      9  C5  <0> d           0.002  -0.004   0.002  0.00  0.00     0.061 C 
ATOM     10  H4  <0> d           0.512  -0.356  -0.895  0.00  0.00     0.084 H 
ATOM     11  H5  <0> d           0.529  -0.365   0.885  0.00  0.00     0.084 H 
BRANCH   9  12
ATOM     12  O2  <0> d          -0.017   1.425   0.010  0.00  0.00    -0.394 OA
ATOM     13  H6  <0> d           0.861   1.830   0.004  0.00  0.00     0.209 HD
ENDBRANCH   9  12
ENDBRANCH   3   9
TORSDOF 2
