REMARK  2 active torsions:
REMARK  status: ('A' for Active; 'I' for Inactive)
REMARK    1  A    between atoms: C1_1  and  O1_2 
REMARK    2  A    between atoms: O1_2  and  C2_3 
ROOT
ATOM      1  C2  <0> d           2.373   1.334  -0.013  0.00  0.00     0.163 A 
ATOM      2  C3  <0> d           1.191   2.062   0.002  0.00  0.00    -0.029 A 
ATOM      3  C4  <0> d          -0.017   1.386   0.010  0.00  0.00    -0.040 A 
ATOM      4  C5  <0> d           0.002  -0.004   0.002  0.00  0.00     0.134 A 
ATOM      5  C6  <0> d           1.217  -0.663  -0.013  0.00  0.00     0.042 A 
ATOM      6  N1  <0> d           2.352   0.012  -0.020  0.00  0.00    -0.234 NA
ATOM      7  F1  <0> d          -1.154  -0.703   0.010  0.00  0.00    -0.205 F 
ATOM      8  H4  <0> d           1.213   3.142   0.007  0.00  0.00     0.090 H 
ATOM      9  H5  <0> d          -0.952   1.926   0.017  0.00  0.00     0.088 H 
ATOM     10  H6  <0> d           1.239  -1.743  -0.019  0.00  0.00     0.119 H 
ENDROOT
BRANCH   1  11
ATOM     11  O1  <0> d           3.563   1.986  -0.022  0.00  0.00    -0.339 OA
BRANCH  11  12
ATOM     12  C1  <0> d           4.744   1.181  -0.038  0.00  0.00     0.012 C 
ATOM     13  H1  <0> d           4.746   0.557  -0.931  0.00  0.00     0.067 H 
ATOM     14  H2  <0> d           5.623   1.826  -0.043  0.00  0.00     0.067 H 
ATOM     15  H3  <0> d           4.764   0.547   0.849  0.00  0.00     0.067 H 
ENDBRANCH  11  12
ENDBRANCH   1  11
TORSDOF 2
