REMARK  1 active torsions:
REMARK  status: ('A' for Active; 'I' for Inactive)
REMARK    1  A    between atoms: C3_3  and  C7_8 
ROOT
ATOM      1  C1  <0> d          -0.017   1.379   0.010  0.00  0.00    -0.080 A 
ATOM      2  C2  <0> d           1.166   2.089   0.002  0.00  0.00    -0.066 A 
ATOM      3  C3  <0> d           2.386   1.408  -0.013  0.00  0.00     0.042 A 
ATOM      4  C4  <0> d           2.398   0.010  -0.021  0.00  0.00    -0.045 A 
ATOM      5  C5  <0> d           1.207  -0.687  -0.013  0.00  0.00     0.035 A 
ATOM      6  C6  <0> d           0.002  -0.004   0.002  0.00  0.00    -0.062 A 
ATOM      7 Cl1  <0> d           1.219  -2.423  -0.023  0.00  0.00    -0.084 Cl
ATOM      8  H1  <0> d          -0.960   1.905   0.026  0.00  0.00     0.083 H 
ATOM      9  H2  <0> d           1.150   3.169   0.008  0.00  0.00     0.085 H 
ATOM     10  H3  <0> d           3.338  -0.523  -0.033  0.00  0.00     0.087 H 
ATOM     11  H4  <0> d          -0.927  -0.554   0.008  0.00  0.00     0.086 H 
ENDROOT
BRANCH   3  12
ATOM     12  C7  <0> d           3.655   2.160  -0.022  0.00  0.00     0.209 C 
ATOM     13  O1  <0> d           3.641   3.383  -0.015  0.00  0.00    -0.644 OA
ATOM     14  O2  <0> d           4.721   1.561  -0.035  0.00  0.00    -0.644 OA
ENDBRANCH   3  12
TORSDOF 1
