REMARK  2 active torsions:
REMARK  status: ('A' for Active; 'I' for Inactive)
REMARK    1  A    between atoms: C3_4  and  O4_10 
REMARK    2  A    between atoms: C4_6  and  O3_9 
ROOT
ATOM      1  C1  <0> d           1.382   1.692   2.409  0.00  0.00     0.043 C 
ATOM      2  C2  <0> d           2.091   1.196   1.146  0.00  0.00     0.043 C 
ATOM      3  O1  <0> d           1.329   1.582  -0.002  0.00  0.00    -0.354 OA
ATOM      4  C3  <0> d          -0.013   1.086   0.008  0.00  0.00     0.175 C 
ATOM      5  H1  <0> d           0.002  -0.004   0.002  0.00  0.00     0.136 H 
ATOM      6  C4  <0> d          -0.722   1.581   1.272  0.00  0.00     0.175 C 
ATOM      7  H2  <0> d          -0.808   2.667   1.239  0.00  0.00     0.136 H 
ATOM      8  O2  <0> d           0.040   1.195   2.420  0.00  0.00    -0.354 OA
ATOM      9  H3  <0> d           1.911   1.329   3.290  0.00  0.00     0.077 H 
ATOM     10  H4  <0> d           1.367   2.782   2.415  0.00  0.00     0.077 H 
ATOM     11  H5  <0> d           2.177   0.110   1.178  0.00  0.00     0.077 H 
ATOM     12  H6  <0> d           3.085   1.640   1.089  0.00  0.00     0.077 H 
ENDROOT
BRANCH   4  13
ATOM     13  O4  <0> d          -0.706   1.560  -1.148  0.00  0.00    -0.367 OA
ATOM     14  H8  <0> d          -0.309   1.286  -1.985  0.00  0.00     0.212 HD
ENDBRANCH   4  13
BRANCH   6  15
ATOM     15  O3  <0> d          -2.026   1.000   1.346  0.00  0.00    -0.367 OA
ATOM     16  H7  <0> d          -2.533   1.271   2.124  0.00  0.00     0.212 HD
ENDBRANCH   6  15
TORSDOF 2
