REMARK  4 active torsions:
REMARK  status: ('A' for Active; 'I' for Inactive)
REMARK    1  A    between atoms: C1_1  and  O1_2 
REMARK    2  A    between atoms: O1_2  and  C2_3 
REMARK    3  A    between atoms: C6_7  and  N2_10 
REMARK    4  A    between atoms: C7_8  and  N1_9 
ROOT
ATOM      1  C2  <0> d           2.402   0.019  -0.021  0.00  0.00     0.096 A 
ATOM      2  C3  <0> d           1.206  -0.683  -0.013  0.00  0.00    -0.048 A 
ATOM      3  C4  <0> d           0.002  -0.004   0.002  0.00  0.00    -0.078 A 
ATOM      4  C5  <0> d          -0.017   1.378   0.010  0.00  0.00    -0.055 A 
ATOM      5  C6  <0> d           1.174   2.090   0.002  0.00  0.00     0.055 A 
ATOM      6  C7  <0> d           2.389   1.409  -0.014  0.00  0.00     0.086 A 
ATOM      7  H4  <0> d           1.215  -1.764  -0.018  0.00  0.00     0.087 H 
ATOM      8  H5  <0> d          -0.927  -0.555   0.008  0.00  0.00     0.083 H 
ATOM      9  H6  <0> d          -0.960   1.905   0.017  0.00  0.00     0.087 H 
ENDROOT
BRANCH   1  10
ATOM     10  O1  <0> d           3.585  -0.652  -0.035  0.00  0.00    -0.354 OA
BRANCH  10  11
ATOM     11  C1  <0> d           3.522  -2.079  -0.041  0.00  0.00     0.010 C 
ATOM     12  H1  <0> d           3.001  -2.424   0.852  0.00  0.00     0.066 H 
ATOM     13  H2  <0> d           2.984  -2.415  -0.928  0.00  0.00     0.066 H 
ATOM     14  H3  <0> d           4.532  -2.488  -0.053  0.00  0.00     0.066 H 
ENDBRANCH  10  11
ENDBRANCH   1  10
BRANCH   6  15
ATOM     15  N1  <0> d           3.597   2.124  -0.022  0.00  0.00    -0.395 N 
ATOM     16  H7  <0> d           4.442   1.648  -0.033  0.00  0.00     0.156 HD
ATOM     17  H8  <0> d           3.587   3.094  -0.017  0.00  0.00     0.156 HD
ENDBRANCH   6  15
BRANCH   5  18
ATOM     18  N2  <0> d           1.155   3.490   0.009  0.00  0.00    -0.397 N 
ATOM     19  H9  <0> d           0.308   3.964   0.020  0.00  0.00     0.156 HD
ATOM     20  H10 <0> d           1.988   3.987   0.004  0.00  0.00     0.156 HD
ENDBRANCH   5  18
TORSDOF 4
