REMARK  4 active torsions:
REMARK  status: ('A' for Active; 'I' for Inactive)
REMARK    1  A    between atoms: C1_1  and  O1_2 
REMARK    2  A    between atoms: O1_2  and  C2_3 
REMARK    3  A    between atoms: C2_3  and  C3_4 
REMARK    4  A    between atoms: C8_10  and  O2_12 
ROOT
ATOM      1  C3  <0> d          -1.490   3.616   0.036  0.00  0.00    -0.009 C 
ATOM      2  H1  <0> d          -2.512   3.239   0.043  0.00  0.00     0.047 H 
ATOM      3  C4  <0> d          -0.773   3.123  -1.223  0.00  0.00    -0.058 C 
ATOM      4  C5  <0> d          -0.753   1.593  -1.232  0.00  0.00    -0.064 C 
ATOM      5  C6  <0> d          -0.013   1.086   0.008  0.00  0.00    -0.063 C 
ATOM      6  C7  <0> d          -0.729   1.579   1.267  0.00  0.00    -0.041 C 
ATOM      7  C8  <0> d          -0.750   3.109   1.275  0.00  0.00     0.041 C 
ATOM      8  H2  <0> d           0.273   3.486   1.268  0.00  0.00     0.083 H 
ATOM      9  H8  <0> d           0.249   3.500  -1.231  0.00  0.00     0.033 H 
ATOM     10  H9  <0> d          -1.301   3.484  -2.106  0.00  0.00     0.033 H 
ATOM     11  H10 <0> d          -0.242   1.241  -2.128  0.00  0.00     0.033 H 
ATOM     12  H11 <0> d          -1.775   1.215  -1.224  0.00  0.00     0.033 H 
ATOM     13  H12 <0> d           0.002  -0.004   0.002  0.00  0.00     0.033 H 
ATOM     14  H13 <0> d           1.010   1.463   0.000  0.00  0.00     0.033 H 
ATOM     15  H14 <0> d          -1.751   1.202   1.275  0.00  0.00     0.036 H 
ATOM     16  H15 <0> d          -0.202   1.218   2.150  0.00  0.00     0.036 H 
ENDROOT
BRANCH   1  17
ATOM     17  C2  <0> d          -1.510   5.146   0.044  0.00  0.00     0.025 C 
ATOM     18  H6  <0> d          -1.941   5.498   0.982  0.00  0.00     0.075 H 
ATOM     19  H7  <0> d          -0.492   5.524  -0.053  0.00  0.00     0.075 H 
BRANCH  17  20
ATOM     20  O1  <0> d          -2.300   5.617  -1.050  0.00  0.00    -0.395 OA
BRANCH  20  21
ATOM     21  C1  <0> d          -2.385   7.041  -1.133  0.00  0.00     0.004 C 
ATOM     22  H3  <0> d          -3.001   7.319  -1.989  0.00  0.00     0.066 H 
ATOM     23  H4  <0> d          -2.833   7.433  -0.221  0.00  0.00     0.066 H 
ATOM     24  H5  <0> d          -1.385   7.458  -1.255  0.00  0.00     0.066 H 
ENDBRANCH  20  21
ENDBRANCH  17  20
ENDBRANCH   1  17
BRANCH   7  25
ATOM     25  O2  <0> d          -1.419   3.570   2.451  0.00  0.00    -0.395 OA
ATOM     26  H16 <0> d          -1.003   3.286   3.277  0.00  0.00     0.210 HD
ENDBRANCH   7  25
TORSDOF 4
