REMARK  5 active torsions:
REMARK  status: ('A' for Active; 'I' for Inactive)
REMARK    1  A    between atoms: C1_1  and  C2_2 
REMARK    2  A    between atoms: C2_2  and  C3_4 
REMARK    3  A    between atoms: C2_2  and  O1_12 
REMARK    4  A    between atoms: C3_4  and  C4_5 
REMARK    5  A    between atoms: C4_5  and  C5_6 
ROOT
ATOM      1  C4  <0> d          -0.019   1.526   0.010  0.00  0.00    -0.039 C 
ATOM      2  H7  <0> d          -0.546   1.887  -0.873  0.00  0.00     0.040 H 
ATOM      3  H8  <0> d          -0.529   1.877   0.907  0.00  0.00     0.040 H 
ENDROOT
BRANCH   1   4
ATOM      4  C3  <0> d           0.002  -0.004   0.002  0.00  0.00    -0.038 C 
ATOM      5  H5  <0> d           0.512  -0.356  -0.895  0.00  0.00     0.037 H 
ATOM      6  H6  <0> d           0.529  -0.365   0.885  0.00  0.00     0.037 H 
BRANCH   4   7
ATOM      7  C2  <0> d          -1.433  -0.534   0.013  0.00  0.00     0.032 C 
ATOM      8  H1  <0> d          -1.986  -0.102  -0.821  0.00  0.00     0.082 H 
BRANCH   7   9
ATOM      9  C1  <0> d          -1.416  -2.058  -0.121  0.00  0.00    -0.052 C 
ATOM     10  H2  <0> d          -0.863  -2.489   0.713  0.00  0.00     0.030 H 
ATOM     11  H3  <0> d          -2.438  -2.435  -0.114  0.00  0.00     0.030 H 
ATOM     12  H4  <0> d          -0.933  -2.334  -1.059  0.00  0.00     0.030 H 
ENDBRANCH   7   9
BRANCH   7  13
ATOM     13  O1  <0> d          -2.066  -0.171   1.242  0.00  0.00    -0.396 OA
ATOM     14  H14 <0> d          -1.626  -0.521   2.029  0.00  0.00     0.210 HD
ENDBRANCH   7  13
ENDBRANCH   4   7
ENDBRANCH   1   4
BRANCH   1  15
ATOM     15  C5  <0> d           1.395   2.047  -0.000  0.00  0.00    -0.058 A 
ATOM     16  C10 <0> d           2.032   2.293  -1.202  0.00  0.00    -0.077 A 
ATOM     17  C9  <0> d           3.329   2.772  -1.212  0.00  0.00    -0.082 A 
ATOM     18  H13 <0> d           1.517   2.111  -2.134  0.00  0.00     0.084 H 
ATOM     19  C8  <0> d           3.989   3.005  -0.020  0.00  0.00    -0.083 A 
ATOM     20  H12 <0> d           3.826   2.964  -2.151  0.00  0.00     0.083 H 
ATOM     21  C7  <0> d           3.352   2.759   1.182  0.00  0.00    -0.082 A 
ATOM     22  H11 <0> d           5.002   3.378  -0.028  0.00  0.00     0.083 H 
ATOM     23  C6  <0> d           2.053   2.285   1.192  0.00  0.00    -0.077 A 
ATOM     24  H10 <0> d           3.867   2.941   2.114  0.00  0.00     0.083 H 
ATOM     25  H9  <0> d           1.554   2.098   2.131  0.00  0.00     0.084 H 
ENDBRANCH   1  15
TORSDOF 5
