REMARK  5 active torsions:
REMARK  status: ('A' for Active; 'I' for Inactive)
REMARK    1  A    between atoms: C1_1  and  C2_2 
REMARK    2  A    between atoms: C4_5  and  C8_11 
REMARK    3  A    between atoms: C4_5  and  C9_12 
REMARK    4  A    between atoms: C5_7  and  C6_9 
REMARK    5  A    between atoms: C5_7  and  C7_10 
ROOT
ATOM      1  C2  <0> d          -1.554  -1.831  -0.248  0.00  0.00     0.041 C 
ATOM      2  H1  <0> d          -1.028  -2.467   0.461  0.00  0.00     0.083 H 
ATOM      3  C3  <0> d          -1.044  -2.087  -1.668  0.00  0.00    -0.013 C 
ATOM      4  C4  <0> d           0.428  -1.683  -1.766  0.00  0.00     0.059 C 
ATOM      5  O1  <0> d           0.676  -0.432  -1.162  0.00  0.00    -0.346 OA
ATOM      6  C5  <0> d           0.002  -0.004   0.002  0.00  0.00     0.158 C 
ATOM      7  O2  <0> d          -1.347  -0.455   0.064  0.00  0.00    -0.351 OA
ATOM      8  H5  <0> d          -1.149  -3.147  -1.907  0.00  0.00     0.041 H 
ATOM      9  H6  <0> d          -1.632  -1.501  -2.377  0.00  0.00     0.041 H 
ENDROOT
BRANCH   4  10
ATOM     10  C8  <0> d           1.301  -2.777  -1.138  0.00  0.00    -0.048 C 
ATOM     11  H13 <0> d           1.145  -3.716  -1.670  0.00  0.00     0.031 H 
ATOM     12  H14 <0> d           2.350  -2.489  -1.208  0.00  0.00     0.031 H 
ATOM     13  H15 <0> d           1.028  -2.903  -0.091  0.00  0.00     0.031 H 
ENDBRANCH   4  10
BRANCH   4  14
ATOM     14  C9  <0> d           0.797  -1.589  -3.260  0.00  0.00    -0.048 C 
ATOM     15  H16 <0> d           0.169  -0.841  -3.744  0.00  0.00     0.031 H 
ATOM     16  H17 <0> d           1.844  -1.303  -3.358  0.00  0.00     0.031 H 
ATOM     17  H18 <0> d           0.640  -2.558  -3.735  0.00  0.00     0.031 H 
ENDBRANCH   4  14
BRANCH   1  18
ATOM     18  C1  <0> d          -3.053  -2.147  -0.184  0.00  0.00    -0.052 C 
ATOM     19  H2  <0> d          -3.586  -1.526  -0.904  0.00  0.00     0.030 H 
ATOM     20  H3  <0> d          -3.213  -3.198  -0.422  0.00  0.00     0.030 H 
ATOM     21  H4  <0> d          -3.425  -1.941   0.820  0.00  0.00     0.030 H 
ENDBRANCH   1  18
BRANCH   6  22
ATOM     22  C6  <0> d          -0.019   1.539   0.011  0.00  0.00    -0.025 C 
ATOM     23  H7  <0> d           1.004   1.917   0.003  0.00  0.00     0.035 H 
ATOM     24  H8  <0> d          -0.546   1.900  -0.873  0.00  0.00     0.035 H 
ATOM     25  H9  <0> d          -0.529   1.891   0.907  0.00  0.00     0.035 H 
ENDBRANCH   6  22
BRANCH   6  26
ATOM     26  C7  <0> d           0.752  -0.460   1.260  0.00  0.00    -0.025 C 
ATOM     27  H10 <0> d           0.235  -0.090   2.146  0.00  0.00     0.035 H 
ATOM     28  H11 <0> d           0.787  -1.549   1.288  0.00  0.00     0.035 H 
ATOM     29  H12 <0> d           1.768  -0.064   1.241  0.00  0.00     0.035 H 
ENDBRANCH   6  26
TORSDOF 5
