REMARK  0 active torsions:
REMARK  status: ('A' for Active; 'I' for Inactive)
ROOT
ATOM      1  C1  <0> d          -0.019   1.556   0.011  0.00  0.00    -0.061 C 
ATOM      2  C2  <0> d           1.473   1.962  -0.002  0.00  0.00    -0.055 C 
ATOM      3  C3  <0> d           2.248   0.610  -0.025  0.00  0.00     0.004 C 
ATOM      4  H1  <0> d           3.187   0.769  -0.330  0.00  0.00     0.051 H 
ATOM      5  C4  <0> d           1.272  -0.271  -0.882  0.00  0.00    -0.052 C 
ATOM      6  C5  <0> d           0.002  -0.004   0.002  0.00  0.00    -0.047 C 
ATOM      7  H2  <0> d          -0.924  -0.494  -0.299  0.00  0.00     0.040 H 
ATOM      8  C6  <0> d           0.557  -0.390   1.407  0.00  0.00    -0.006 C 
ATOM      9  C7  <0> d           2.024   0.012   1.372  0.00  0.00     0.131 C 
ATOM     10  O1  <0> d           2.839  -0.111   2.254  0.00  0.00    -0.298 OA
ATOM     11  H3  <0> d          -0.524   1.934  -0.878  0.00  0.00     0.033 H 
ATOM     12  H4  <0> d          -0.507   1.925   0.913  0.00  0.00     0.033 H 
ATOM     13  H5  <0> d           1.700   2.546  -0.893  0.00  0.00     0.034 H 
ATOM     14  H6  <0> d           1.720   2.527   0.897  0.00  0.00     0.034 H 
ATOM     15  H7  <0> d           1.559  -1.322  -0.880  0.00  0.00     0.034 H 
ATOM     16  H8  <0> d           1.155   0.114  -1.895  0.00  0.00     0.034 H 
ATOM     17  H9  <0> d           0.048   0.102   2.114  0.00  0.00     0.044 H 
ATOM     18  H10 <0> d           0.462  -1.463   1.571  0.00  0.00     0.044 H 
ENDROOT
TORSDOF 0
