REMARK  2 active torsions:
REMARK  status: ('A' for Active; 'I' for Inactive)
REMARK    1  A    between atoms: C1_1  and  C2_2 
REMARK    2  A    between atoms: C3_3  and  C5_8 
ROOT
ATOM      1  C2  <0> d           0.002  -0.004   0.002  0.00  0.00     0.042 A 
ATOM      2  C3  <0> d           0.008  -0.812  -1.100  0.00  0.00     0.156 A 
ATOM      3  N1  <0> d           0.028  -2.099  -0.662  0.00  0.00    -0.235 NA
ATOM      4  C4  <0> d           0.033  -2.100   0.639  0.00  0.00     0.065 A 
ATOM      5  N2  <0> d           0.024  -0.815   1.083  0.00  0.00    -0.352 N 
ATOM      6  H1  <0> d           0.029  -0.531   2.011  0.00  0.00     0.166 HD
ATOM      7  H5  <0> d           0.048  -2.980   1.265  0.00  0.00     0.143 H 
ENDROOT
BRANCH   1   8
ATOM      8  C1  <0> d          -0.018   1.503   0.010  0.00  0.00    -0.035 C 
ATOM      9  H2  <0> d           1.004   1.880   0.003  0.00  0.00     0.035 H 
ATOM     10  H3  <0> d          -0.545   1.864  -0.873  0.00  0.00     0.035 H 
ATOM     11  H4  <0> d          -0.529   1.854   0.907  0.00  0.00     0.035 H 
ENDBRANCH   1   8
BRANCH   2  12
ATOM     12  C5  <0> d          -0.004  -0.371  -2.501  0.00  0.00     0.231 C 
ATOM     13  O1  <0> d          -0.021   0.824  -2.767  0.00  0.00    -0.643 OA
ATOM     14  O2  <0> d           0.003  -1.198  -3.403  0.00  0.00    -0.643 OA
ENDBRANCH   2  12
TORSDOF 2
