REMARK  2 active torsions:
REMARK  status: ('A' for Active; 'I' for Inactive)
REMARK    1  A    between atoms: C1_1  and  C2_2 
REMARK       I    between atoms: C2_2  and  N1_4 
REMARK    2  A    between atoms: C5_7  and  C6_9 
ROOT
ATOM      1  C2  <0> d          -1.508   4.238   0.038  0.00  0.00     0.240 C 
ATOM      2  O1  <0> d          -2.708   4.099   0.048  0.00  0.00    -0.272 OA
ATOM      3  N1  <0> d          -0.704   3.156   0.025  0.00  0.00    -0.212 N 
ATOM      4  C3  <0> d          -1.113   1.853   0.017  0.00  0.00     0.010 A 
ATOM      5  C4  <0> d          -0.013   1.076   0.008  0.00  0.00    -0.030 A 
ATOM      6  C5  <0> d           1.119   1.923   0.002  0.00  0.00     0.155 A 
ATOM      7  N2  <0> d           0.696   3.170   0.012  0.00  0.00    -0.159 NA
ATOM      8  H4  <0> d          -2.136   1.508   0.019  0.00  0.00     0.115 H 
ATOM      9  H5  <0> d           0.002  -0.004   0.002  0.00  0.00     0.089 H 
ENDROOT
BRANCH   1  10
ATOM     10  C1  <0> d          -0.909   5.621   0.040  0.00  0.00    -0.001 C 
ATOM     11  H1  <0> d           0.178   5.546   0.030  0.00  0.00     0.040 H 
ATOM     12  H2  <0> d          -1.245   6.163  -0.844  0.00  0.00     0.040 H 
ATOM     13  H3  <0> d          -1.229   6.153   0.936  0.00  0.00     0.040 H 
ENDBRANCH   1  10
BRANCH   6  14
ATOM     14  C6  <0> d           2.530   1.486  -0.014  0.00  0.00     0.230 C 
ATOM     15  O2  <0> d           2.799   0.301  -0.023  0.00  0.00    -0.643 OA
ATOM     16  O3  <0> d           3.519   2.401  -0.019  0.00  0.00    -0.643 OA
ENDBRANCH   6  14
TORSDOF 2
