REMARK  1 active torsions:
REMARK  status: ('A' for Active; 'I' for Inactive)
REMARK    1  A    between atoms: C2_2  and  C3_3 
ROOT
ATOM      1  C1  <0> d           0.018  -1.178  -0.004  0.00  0.00    -0.149 C 
ATOM      2  C2  <0> d           0.002  -0.004   0.002  0.00  0.00    -0.076 C 
ATOM      3  H1  <0> d           0.032  -2.228  -0.010  0.00  0.00     0.166 H 
ENDROOT
BRANCH   2   4
ATOM      4  C3  <0> d          -0.017   1.428   0.010  0.00  0.00     0.036 A 
ATOM      5  C8  <0> d           1.179   2.151   0.002  0.00  0.00     0.023 A 
ATOM      6  N3  <0> d           1.180   3.466   0.004  0.00  0.00    -0.239 NA
ATOM      7  H4  <0> d           2.120   1.621  -0.009  0.00  0.00     0.117 H 
ATOM      8  C6  <0> d           0.054   4.164   0.024  0.00  0.00     0.157 A 
ATOM      9  C5  <0> d          -1.193   3.512   0.038  0.00  0.00     0.105 A 
ATOM     10  N1  <0> d          -0.227   5.513   0.036  0.00  0.00    -0.334 N 
ATOM     11  C4  <0> d          -1.230   2.117   0.031  0.00  0.00    -0.032 A 
ATOM     12  N2  <0> d          -2.148   4.477   0.057  0.00  0.00    -0.240 NA
ATOM     13  H2  <0> d          -2.171   1.586   0.041  0.00  0.00     0.089 H 
ATOM     14  C7  <0> d          -1.582   5.648   0.056  0.00  0.00     0.066 A 
ATOM     15  H3  <0> d          -2.110   6.590   0.069  0.00  0.00     0.143 H 
ATOM     16  H5  <0> d           0.421   6.235   0.031  0.00  0.00     0.168 HD
ENDBRANCH   2   4
TORSDOF 1
