REMARK  0 active torsions:
REMARK  status: ('A' for Active; 'I' for Inactive)
ROOT
ATOM      1  C1  <0> d          -1.232   3.132   0.029  0.00  0.00    -0.022 A 
ATOM      2  C2  <0> d          -1.225   1.744   0.017  0.00  0.00     0.135 A 
ATOM      3  C3  <0> d          -0.013   1.076   0.008  0.00  0.00     0.039 A 
ATOM      4  N1  <0> d           1.125   1.743   0.001  0.00  0.00    -0.268 NA
ATOM      5  C4  <0> d           1.156   3.061   0.007  0.00  0.00     0.023 A 
ATOM      6  C5  <0> d          -0.015   3.798   0.021  0.00  0.00     0.054 A 
ATOM      7 Cl1  <0> d           0.038   5.533   0.029  0.00  0.00    -0.083 Cl
ATOM      8  F1  <0> d          -2.386   1.054   0.019  0.00  0.00    -0.205 F 
ATOM      9  H1  <0> d          -2.162   3.681   0.041  0.00  0.00     0.090 H 
ATOM     10  H2  <0> d           0.002  -0.004   0.002  0.00  0.00     0.119 H 
ATOM     11  H3  <0> d           2.108   3.572   0.001  0.00  0.00     0.117 H 
ENDROOT
TORSDOF 0
