REMARK  3 active torsions:
REMARK  status: ('A' for Active; 'I' for Inactive)
REMARK    1  A    between atoms: C1_1  and  S1_2 
REMARK    2  A    between atoms: S1_2  and  C2_4 
REMARK    3  A    between atoms: C3_6  and  N4_10 
ROOT
ATOM      1  C2  <0> d           0.848  -0.411  -1.489  0.00  0.00     0.255 A 
ATOM      2  N1  <0> d           0.275  -0.594  -2.679  0.00  0.00    -0.033 NA
ATOM      3  C3  <0> d           1.194  -0.884  -3.575  0.00  0.00     0.716 A 
ATOM      4  N2  <0> d           2.391  -0.889  -2.952  0.00  0.00    -0.105 N 
ATOM      5  H1  <0> d           3.255  -1.070  -3.354  0.00  0.00     0.208 HD
ATOM      6  N3  <0> d           2.139  -0.575  -1.607  0.00  0.00    -0.129 NA
ENDROOT
BRANCH   1   7
ATOM      7  S1  <0> d           0.002  -0.004   0.002  0.00  0.00     0.086 S 
ATOM      8  O1  <0> d           0.868  -0.472   1.027  0.00  0.00    -0.250 OA
BRANCH   7   9
ATOM      9  C1  <0> d          -0.022   1.810   0.012  0.00  0.00    -0.001 C 
ATOM     10  H2  <0> d           1.000   2.187   0.004  0.00  0.00     0.046 H 
ATOM     11  H3  <0> d          -0.550   2.171  -0.871  0.00  0.00     0.046 H 
ATOM     12  H4  <0> d          -0.533   2.161   0.909  0.00  0.00     0.046 H 
ENDBRANCH   7   9
ENDBRANCH   1   7
BRANCH   3  13
ATOM     13  N4  <0> d           0.972  -1.139  -4.916  0.00  0.00    -0.231 N 
ATOM     14  H5  <0> d           0.070  -1.111  -5.272  0.00  0.00     0.174 HD
ATOM     15  H6  <0> d           1.718  -1.345  -5.500  0.00  0.00     0.174 HD
ENDBRANCH   3  13
TORSDOF 3
