REMARK  3 active torsions:
REMARK  status: ('A' for Active; 'I' for Inactive)
REMARK    1  A    between atoms: C1_1  and  N1_2 
REMARK    2  A    between atoms: N1_2  and  C2_3 
REMARK    3  A    between atoms: C3_4  and  C5_8 
ROOT
ATOM      1  C2  <0> d           0.599  -0.680  -1.042  0.00  0.00     0.106 A 
ATOM      2  C3  <0> d           0.718  -2.054  -1.238  0.00  0.00     0.166 A 
ATOM      3  N2  <0> d           1.346  -2.480  -2.342  0.00  0.00    -0.244 NA
ATOM      4  C4  <0> d           1.817  -1.594  -3.180  0.00  0.00     0.043 A 
ATOM      5  S1  <0> d           1.361  -0.054  -2.405  0.00  0.00    -0.063 SA
ATOM      6  H5  <0> d           2.344  -1.755  -4.109  0.00  0.00     0.126 H 
ENDROOT
BRANCH   1   7
ATOM      7  N1  <0> d           0.002  -0.004   0.002  0.00  0.00    -0.387 N 
ATOM      8  H4  <0> d          -0.404  -0.499   0.731  0.00  0.00     0.159 HD
BRANCH   7   9
ATOM      9  C1  <0> d          -0.018   1.461   0.010  0.00  0.00    -0.020 C 
ATOM     10  H1  <0> d           1.005   1.838   0.002  0.00  0.00     0.056 H 
ATOM     11  H2  <0> d          -0.545   1.822  -0.873  0.00  0.00     0.056 H 
ATOM     12  H3  <0> d          -0.528   1.812   0.907  0.00  0.00     0.056 H 
ENDBRANCH   7   9
ENDBRANCH   1   7
BRANCH   2  13
ATOM     13  C5  <0> d           0.190  -2.974  -0.299  0.00  0.00     0.231 C 
ATOM     14  O1  <0> d          -0.381  -2.564   0.704  0.00  0.00    -0.643 OA
ATOM     15  O2  <0> d           0.305  -4.178  -0.491  0.00  0.00    -0.643 OA
ENDBRANCH   2  13
TORSDOF 3
