REMARK  2 active torsions:
REMARK  status: ('A' for Active; 'I' for Inactive)
REMARK    1  A    between atoms: C1_1  and  C2_2 
REMARK    2  A    between atoms: C2_2  and  C3_3 
ROOT
ATOM      1  C3  <0> d          -1.412  -0.526   0.013  0.00  0.00    -0.022 A 
ATOM      2  C4  <0> d          -2.150  -0.802   1.113  0.00  0.00     0.003 A 
ATOM      3  N1  <0> d          -3.355  -1.245   0.698  0.00  0.00    -0.289 N 
ATOM      4  H1  <0> d          -4.090  -1.518   1.269  0.00  0.00     0.188 HD
ATOM      5  N2  <0> d          -3.358  -1.241  -0.703  0.00  0.00    -0.187 NA
ATOM      6  C5  <0> d          -2.195  -0.804  -1.112  0.00  0.00     0.029 A 
ATOM      7  H7  <0> d          -1.832  -0.688   2.138  0.00  0.00     0.114 H 
ATOM      8  H8  <0> d          -1.891  -0.682  -2.142  0.00  0.00     0.118 H 
ENDROOT
BRANCH   1   9
ATOM      9  C2  <0> d           0.002  -0.004   0.002  0.00  0.00    -0.042 C 
ATOM     10  H5  <0> d           0.512  -0.356  -0.895  0.00  0.00     0.039 H 
ATOM     11  H6  <0> d           0.529  -0.365   0.885  0.00  0.00     0.039 H 
BRANCH   9  12
ATOM     12  C1  <0> d          -0.019   1.526   0.010  0.00  0.00    -0.073 C 
ATOM     13  H2  <0> d           1.004   1.903   0.003  0.00  0.00     0.028 H 
ATOM     14  H3  <0> d          -0.546   1.887  -0.873  0.00  0.00     0.028 H 
ATOM     15  H4  <0> d          -0.529   1.877   0.907  0.00  0.00     0.028 H 
ENDBRANCH   9  12
ENDBRANCH   1   9
TORSDOF 2
