REMARK  3 active torsions:
REMARK  status: ('A' for Active; 'I' for Inactive)
REMARK    1  A    between atoms: C2_2  and  C7_9 
REMARK    2  A    between atoms: C4_4  and  O2_8 
REMARK    3  A    between atoms: C6_6  and  O1_7 
ROOT
ATOM      1  C1  <0> d           2.404   0.017  -0.020  0.00  0.00    -0.034 A 
ATOM      2  C2  <0> d           2.390   1.413  -0.013  0.00  0.00     0.046 A 
ATOM      3  C3  <0> d           1.172   2.094   0.002  0.00  0.00    -0.034 A 
ATOM      4  C4  <0> d          -0.017   1.383   0.010  0.00  0.00     0.069 A 
ATOM      5  C5  <0> d           0.002  -0.004   0.002  0.00  0.00    -0.019 A 
ATOM      6  C6  <0> d           1.210  -0.685  -0.013  0.00  0.00     0.069 A 
ATOM      7  H1  <0> d           3.344  -0.514  -0.032  0.00  0.00     0.089 H 
ATOM      8  H2  <0> d           1.156   3.174   0.008  0.00  0.00     0.089 H 
ATOM      9  H3  <0> d          -0.927  -0.555   0.008  0.00  0.00     0.092 H 
ENDROOT
BRANCH   2  10
ATOM     10  C7  <0> d           3.661   2.167  -0.021  0.00  0.00     0.209 C 
ATOM     11  O3  <0> d           4.720   1.572  -0.034  0.00  0.00    -0.644 OA
ATOM     12  O4  <0> d           3.645   3.514  -0.014  0.00  0.00    -0.644 OA
ENDBRANCH   2  10
BRANCH   6  13
ATOM     13  O1  <0> d           1.223  -2.045  -0.020  0.00  0.00    -0.361 OA
ATOM     14  H4  <0> d           1.219  -2.433  -0.906  0.00  0.00     0.217 HD
ENDBRANCH   6  13
BRANCH   4  15
ATOM     15  O2  <0> d          -1.203   2.046   0.019  0.00  0.00    -0.361 OA
ATOM     16  H5  <0> d          -1.543   2.232   0.905  0.00  0.00     0.217 HD
ENDBRANCH   4  15
TORSDOF 3
