REMARK  2 active torsions:
REMARK  status: ('A' for Active; 'I' for Inactive)
REMARK    1  A    between atoms: C1_1  and  C2_2 
REMARK    2  A    between atoms: C3_3  and  C5_8 
ROOT
ATOM      1  C2  <0> d           0.623   3.170   0.012  0.00  0.00     0.030 A 
ATOM      2  C3  <0> d          -0.722   3.114   0.024  0.00  0.00     0.054 A 
ATOM      3  N1  <0> d          -1.083   1.822   0.017  0.00  0.00    -0.247 NA
ATOM      4  C4  <0> d          -0.013   1.076   0.008  0.00  0.00     0.064 A 
ATOM      5  N2  <0> d           1.074   1.878   0.002  0.00  0.00    -0.353 N 
ATOM      6  H1  <0> d           2.029   1.582  -0.008  0.00  0.00     0.166 HD
ATOM      7  H5  <0> d           0.002  -0.004   0.002  0.00  0.00     0.143 H 
ENDROOT
BRANCH   1   8
ATOM      8  C1  <0> d           1.470   4.417   0.011  0.00  0.00    -0.036 C 
ATOM      9  H2  <0> d           1.665   4.723  -1.016  0.00  0.00     0.035 H 
ATOM     10  H3  <0> d           0.943   5.215   0.534  0.00  0.00     0.035 H 
ATOM     11  H4  <0> d           2.415   4.215   0.516  0.00  0.00     0.035 H 
ENDBRANCH   1   8
BRANCH   2  12
ATOM     12  C5  <0> d          -1.658   4.295   0.038  0.00  0.00    -0.034 C 
ATOM     13  H6  <0> d          -1.893   4.584  -0.986  0.00  0.00     0.035 H 
ATOM     14  H7  <0> d          -2.576   4.024   0.559  0.00  0.00     0.035 H 
ATOM     15  H8  <0> d          -1.181   5.130   0.551  0.00  0.00     0.035 H 
ENDBRANCH   2  12
TORSDOF 2
