REMARK  2 active torsions:
REMARK  status: ('A' for Active; 'I' for Inactive)
REMARK    1  A    between atoms: C1_1  and  C2_2 
REMARK    2  A    between atoms: C4_6  and  C11_13 
ROOT
ATOM      1  C2  <0> d          -0.068   5.353   0.028  0.00  0.00    -0.014 C 
ATOM      2  H1  <0> d          -0.130   5.710   1.056  0.00  0.00     0.049 H 
ATOM      3  C3  <0> d          -1.292   5.829  -0.752  0.00  0.00     0.022 C 
ATOM      4  N1  <0> d          -2.500   5.141  -0.310  0.00  0.00    -0.293 NA
ATOM      5  C4  <0> d          -2.494   3.900   0.047  0.00  0.00     0.035 C 
ATOM      6  C5  <0> d          -1.230   3.140   0.030  0.00  0.00    -0.006 A 
ATOM      7  C6  <0> d          -0.023   3.847   0.022  0.00  0.00    -0.041 A 
ATOM      8  C7  <0> d           1.172   3.167   0.007  0.00  0.00    -0.076 A 
ATOM      9  C8  <0> d           1.177   1.781   0.000  0.00  0.00    -0.082 A 
ATOM     10  C9  <0> d          -0.013   1.076   0.008  0.00  0.00    -0.082 A 
ATOM     11  C10 <0> d          -1.220   1.748   0.017  0.00  0.00    -0.071 A 
ATOM     12  H5  <0> d          -1.138   5.634  -1.813  0.00  0.00     0.068 H 
ATOM     13  H6  <0> d          -1.416   6.901  -0.600  0.00  0.00     0.068 H 
ATOM     14  H7  <0> d           2.105   3.711   0.002  0.00  0.00     0.084 H 
ATOM     15  H8  <0> d           2.117   1.248  -0.011  0.00  0.00     0.083 H 
ATOM     16  H9  <0> d           0.002  -0.004   0.002  0.00  0.00     0.083 H 
ATOM     17  H10 <0> d          -2.149   1.197   0.019  0.00  0.00     0.084 H 
ENDROOT
BRANCH   1  18
ATOM     18  C1  <0> d           1.200   5.903  -0.628  0.00  0.00    -0.067 C 
ATOM     19  H2  <0> d           1.262   5.545  -1.656  0.00  0.00     0.028 H 
ATOM     20  H3  <0> d           1.168   6.992  -0.623  0.00  0.00     0.028 H 
ATOM     21  H4  <0> d           2.074   5.563  -0.072  0.00  0.00     0.028 H 
ENDBRANCH   1  18
BRANCH   5  22
ATOM     22  C11 <0> d          -3.774   3.230   0.478  0.00  0.00    -0.035 C 
ATOM     23  H11 <0> d          -3.891   3.339   1.465  0.00  0.00     0.035 H 
ATOM     24  H12 <0> d          -4.616   3.689  -0.040  0.00  0.00     0.035 H 
ATOM     25  H13 <0> d          -3.730   2.170   0.232  0.00  0.00     0.035 H 
ENDBRANCH   5  22
TORSDOF 2
