REMARK  5 active torsions:
REMARK  status: ('A' for Active; 'I' for Inactive)
REMARK    1  A    between atoms: C1_1  and  C2_2 
REMARK    2  A    between atoms: C4_4  and  C8_10 
REMARK    3  A    between atoms: N1_5  and  C5_7 
REMARK    4  A    between atoms: C5_7  and  C6_8 
REMARK    5  A    between atoms: C5_7  and  C7_9 
ROOT
ATOM      1  C2  <0> d          -1.557   2.919   2.707  0.00  0.00     0.053 A 
ATOM      2  C3  <0> d          -1.772   1.598   3.114  0.00  0.00    -0.035 A 
ATOM      3  C4  <0> d          -1.240   0.781   2.175  0.00  0.00     0.029 A 
ATOM      4  N1  <0> d          -0.698   1.558   1.213  0.00  0.00    -0.270 N 
ATOM      5  N2  <0> d          -0.913   2.896   1.568  0.00  0.00    -0.177 NA
ATOM      6  H4  <0> d          -2.277   1.285   4.015  0.00  0.00     0.089 H 
ENDROOT
BRANCH   4   7
ATOM      7  C5  <0> d          -0.013   1.086   0.008  0.00  0.00     0.028 C 
ATOM      8  H5  <0> d           0.002  -0.004   0.002  0.00  0.00     0.074 H 
BRANCH   7   9
ATOM      9  C6  <0> d           1.423   1.615  -0.003  0.00  0.00    -0.056 C 
ATOM     10  H6  <0> d           1.950   1.254   0.880  0.00  0.00     0.030 H 
ATOM     11  H7  <0> d           1.933   1.264  -0.900  0.00  0.00     0.030 H 
ATOM     12  H8  <0> d           1.408   2.705   0.003  0.00  0.00     0.030 H 
ENDBRANCH   7   9
BRANCH   7  13
ATOM     13  C7  <0> d          -0.753   1.593  -1.232  0.00  0.00    -0.056 C 
ATOM     14  H9  <0> d          -0.242   1.241  -2.128  0.00  0.00     0.030 H 
ATOM     15  H10 <0> d          -1.775   1.215  -1.224  0.00  0.00     0.030 H 
ATOM     16  H11 <0> d          -0.767   2.683  -1.226  0.00  0.00     0.030 H 
ENDBRANCH   7  13
ENDBRANCH   4   7
BRANCH   3  17
ATOM     17  C8  <0> d          -1.246  -0.725   2.201  0.00  0.00    -0.036 C 
ATOM     18  H12 <0> d          -0.354  -1.084   2.713  0.00  0.00     0.035 H 
ATOM     19  H13 <0> d          -2.134  -1.076   2.727  0.00  0.00     0.035 H 
ATOM     20  H14 <0> d          -1.256  -1.106   1.179  0.00  0.00     0.035 H 
ENDBRANCH   3  17
BRANCH   1  21
ATOM     21  C1  <0> d          -1.992   4.154   3.452  0.00  0.00    -0.034 C 
ATOM     22  H1  <0> d          -2.991   4.442   3.127  0.00  0.00     0.035 H 
ATOM     23  H2  <0> d          -2.004   3.948   4.523  0.00  0.00     0.035 H 
ATOM     24  H3  <0> d          -1.294   4.967   3.247  0.00  0.00     0.035 H 
ENDBRANCH   1  21
TORSDOF 5
