REMARK  3 active torsions:
REMARK  status: ('A' for Active; 'I' for Inactive)
REMARK    1  A    between atoms: C1_1  and  C2_2 
REMARK    2  A    between atoms: N1_4  and  C5_8 
REMARK    3  A    between atoms: C4_6  and  N3_7 
ROOT
ATOM      1  C2  <0> d           0.002  -0.004   0.002  0.00  0.00     0.002 A 
ATOM      2  C3  <0> d           0.008  -0.794  -1.096  0.00  0.00     0.007 A 
ATOM      3  N1  <0> d           0.028  -2.079  -0.681  0.00  0.00    -0.283 N 
ATOM      4  N2  <0> d           0.033  -2.083   0.720  0.00  0.00    -0.155 NA
ATOM      5  C4  <0> d           0.024  -0.837   1.133  0.00  0.00     0.148 A 
ATOM      6  H4  <0> d          -0.000  -0.458  -2.122  0.00  0.00     0.115 H 
ENDROOT
BRANCH   1   7
ATOM      7  C1  <0> d          -0.018   1.503   0.010  0.00  0.00    -0.046 C 
ATOM      8  H1  <0> d           1.004   1.880   0.003  0.00  0.00     0.033 H 
ATOM      9  H2  <0> d          -0.545   1.864  -0.873  0.00  0.00     0.033 H 
ATOM     10  H3  <0> d          -0.529   1.854   0.907  0.00  0.00     0.033 H 
ENDBRANCH   1   7
BRANCH   5  11
ATOM     11  N3  <0> d           0.032  -0.412   2.466  0.00  0.00    -0.382 N 
ATOM     12  H5  <0> d           0.021   0.535   2.674  0.00  0.00     0.157 HD
ATOM     13  H6  <0> d           0.047  -1.066   3.183  0.00  0.00     0.157 HD
ENDBRANCH   5  11
BRANCH   3  14
ATOM     14  C5  <0> d           0.040  -3.262  -1.545  0.00  0.00     0.002 C 
ATOM     15  H7  <0> d           1.071  -3.541  -1.763  0.00  0.00     0.059 H 
ATOM     16  H8  <0> d          -0.461  -4.087  -1.038  0.00  0.00     0.059 H 
ATOM     17  H9  <0> d          -0.481  -3.037  -2.476  0.00  0.00     0.059 H 
ENDBRANCH   3  14
TORSDOF 3
