REMARK  0 active torsions:
REMARK  status: ('A' for Active; 'I' for Inactive)
ROOT
ATOM      1  C1  <0> d           1.160   2.162   0.003  0.00  0.00    -0.054 A 
ATOM      2  C2  <0> d           1.098   3.515   0.011  0.00  0.00    -0.042 A 
ATOM      3  S1  <0> d          -0.658   3.829   0.029  0.00  0.00    -0.089 SA
ATOM      4  C3  <0> d          -1.226   2.136   0.019  0.00  0.00     0.105 A 
ATOM      5  C4  <0> d          -0.017   1.428   0.010  0.00  0.00     0.072 A 
ATOM      6  C5  <0> d           0.002  -0.004   0.002  0.00  0.00     0.101 C 
ATOM      7  N1  <0> d           0.018  -1.140  -0.004  0.00  0.00    -0.191 NA
ATOM      8  C6  <0> d          -2.567   1.634   0.022  0.00  0.00     0.108 C 
ATOM      9  N2  <0> d          -3.631   1.235   0.025  0.00  0.00    -0.191 NA
ATOM     10  H1  <0> d           2.116   1.659  -0.009  0.00  0.00     0.086 H 
ATOM     11  H2  <0> d           1.911   4.227   0.007  0.00  0.00     0.095 H 
ENDROOT
TORSDOF 0
