REMARK  3 active torsions:
REMARK  status: ('A' for Active; 'I' for Inactive)
REMARK    1  A    between atoms: C1_1  and  C2_2 
REMARK    2  A    between atoms: C2_2  and  C3_4 
REMARK    3  A    between atoms: C2_2  and  O3_7 
ROOT
ATOM      1  C2  <0> d           0.002  -0.004   0.002  0.00  0.00     0.115 C 
ATOM      2  H1  <0> d           0.512  -0.356  -0.895  0.00  0.00     0.099 H 
ENDROOT
BRANCH   1   3
ATOM      3  C1  <0> d          -0.019   1.526   0.010  0.00  0.00    -0.043 C 
ATOM      4  H2  <0> d           1.004   1.903   0.003  0.00  0.00     0.031 H 
ATOM      5  H3  <0> d          -0.546   1.887  -0.873  0.00  0.00     0.031 H 
ATOM      6  H4  <0> d          -0.529   1.877   0.907  0.00  0.00     0.031 H 
ENDBRANCH   1   3
BRANCH   1   7
ATOM      7  C3  <0> d          -1.412  -0.526   0.013  0.00  0.00     0.202 C 
ATOM      8  O1  <0> d          -2.147  -0.313  -0.936  0.00  0.00    -0.646 OA
ATOM      9  O2  <0> d          -1.820  -1.161   0.970  0.00  0.00    -0.646 OA
ENDBRANCH   1   7
BRANCH   1  10
ATOM     10  O3  <0> d           0.693  -0.477   1.160  0.00  0.00    -0.385 OA
ATOM     11  H5  <0> d           1.611  -0.180   1.219  0.00  0.00     0.210 HD
ENDBRANCH   1  10
TORSDOF 3
