REMARK  1 active torsions:
REMARK  status: ('A' for Active; 'I' for Inactive)
REMARK    1  A    between atoms: C1_1  and  C2_2 
ROOT
ATOM      1  C2  <0> d           2.386   1.421  -0.014  0.00  0.00    -0.058 A 
ATOM      2  C3  <0> d           1.187   2.102   0.002  0.00  0.00    -0.054 A 
ATOM      3  C4  <0> d          -0.017   1.394   0.010  0.00  0.00     0.086 A 
ATOM      4  C5  <0> d           0.002  -0.004   0.002  0.00  0.00     0.175 A 
ATOM      5  C6  <0> d           1.213  -0.675  -0.013  0.00  0.00     0.157 A 
ATOM      6  C7  <0> d           2.401   0.037  -0.021  0.00  0.00    -0.037 A 
ATOM      7  F1  <0> d           1.236  -2.026  -0.021  0.00  0.00    -0.203 F 
ATOM      8  F2  <0> d          -1.157  -0.698   0.009  0.00  0.00    -0.201 F 
ATOM      9  C8  <0> d          -1.265   2.097   0.019  0.00  0.00     0.102 C 
ATOM     10  N1  <0> d          -2.255   2.654   0.027  0.00  0.00    -0.191 NA
ATOM     11  H4  <0> d           1.179   3.182   0.007  0.00  0.00     0.086 H 
ATOM     12  H5  <0> d           3.343  -0.490  -0.033  0.00  0.00     0.089 H 
ENDROOT
BRANCH   1  13
ATOM     13  C1  <0> d           3.684   2.186  -0.023  0.00  0.00    -0.051 C 
ATOM     14  H1  <0> d           3.474   3.265  -0.016  0.00  0.00     0.033 H 
ATOM     15  H2  <0> d           4.254   1.929  -0.929  0.00  0.00     0.033 H 
ATOM     16  H3  <0> d           4.272   1.921   0.868  0.00  0.00     0.033 H 
ENDBRANCH   1  13
TORSDOF 1
