REMARK  1 active torsions:
REMARK  status: ('A' for Active; 'I' for Inactive)
REMARK    1  A    between atoms: C8_8  and  C9_10 
ROOT
ATOM      1  C1  <0> d           2.345   0.491  -1.680  0.00  0.00    -0.065 C 
ATOM      2  C2  <0> d           0.992  -0.221  -1.716  0.00  0.00    -0.064 C 
ATOM      3  C3  <0> d           0.244   0.036  -0.405  0.00  0.00    -0.057 C 
ATOM      4  C4  <0> d           0.107   1.548  -0.200  0.00  0.00    -0.026 A 
ATOM      5  C5  <0> d           1.422   2.331  -0.263  0.00  0.00    -0.057 C 
ATOM      6  C6  <0> d           2.133   2.002  -1.579  0.00  0.00    -0.064 C 
ATOM      7  C7  <0> d          -0.970   2.040   0.765  0.00  0.00    -0.044 A 
ATOM      8  C8  <0> d          -1.150   2.226  -0.743  0.00  0.00     0.038 A 
ATOM      9  H1  <0> d          -1.045   3.235  -1.143  0.00  0.00     0.057 H 
ATOM     10  H2  <0> d           2.913   0.146  -0.815  0.00  0.00     0.033 H 
ATOM     11  H3  <0> d           2.900   0.263  -2.590  0.00  0.00     0.033 H 
ATOM     12  H4  <0> d           1.149  -1.293  -1.841  0.00  0.00     0.033 H 
ATOM     13  H5  <0> d           0.404   0.160  -2.551  0.00  0.00     0.033 H 
ATOM     14  H6  <0> d           0.804  -0.395   0.425  0.00  0.00     0.034 H 
ATOM     15  H7  <0> d          -0.746  -0.417  -0.452  0.00  0.00     0.034 H 
ATOM     16  H8  <0> d           1.212   3.400  -0.218  0.00  0.00     0.034 H 
ATOM     17  H9  <0> d           2.057   2.046   0.576  0.00  0.00     0.034 H 
ATOM     18  H10 <0> d           3.099   2.507  -1.606  0.00  0.00     0.033 H 
ATOM     19  H11 <0> d           1.522   2.340  -2.416  0.00  0.00     0.033 H 
ATOM     20  H12 <0> d          -1.587   1.288   1.257  0.00  0.00     0.035 H 
ATOM     21  H13 <0> d          -0.746   2.927   1.358  0.00  0.00     0.035 H 
ENDROOT
BRANCH   8  22
ATOM     22  C9  <0> d          -2.167   1.356  -1.435  0.00  0.00     0.177 C 
ATOM     23  O1  <0> d          -3.112   0.924  -0.818  0.00  0.00    -0.648 OA
ATOM     24  O2  <0> d          -2.023   1.060  -2.736  0.00  0.00    -0.648 OA
ENDBRANCH   8  22
TORSDOF 1
