REMARK  5 active torsions:
REMARK  status: ('A' for Active; 'I' for Inactive)
REMARK    1  A    between atoms: C1_1  and  C2_2 
REMARK    2  A    between atoms: C6_6  and  C7_8 
REMARK    3  A    between atoms: C7_8  and  C8_9 
REMARK    4  A    between atoms: C7_8  and  C9_10 
REMARK    5  A    between atoms: C7_8  and  O1_11 
ROOT
ATOM      1  C2  <0> d           0.002  -0.004   0.002  0.00  0.00     0.031 A 
ATOM      2  C3  <0> d           0.005  -0.681  -1.203  0.00  0.00    -0.059 A 
ATOM      3  C4  <0> d           0.024  -2.067  -1.200  0.00  0.00    -0.079 A 
ATOM      4  C5  <0> d           0.039  -2.724   0.021  0.00  0.00    -0.056 A 
ATOM      5  C6  <0> d           0.035  -1.980   1.186  0.00  0.00     0.068 A 
ATOM      6  N1  <0> d           0.022  -0.662   1.145  0.00  0.00    -0.255 NA
ATOM      7  H4  <0> d          -0.007  -0.136  -2.136  0.00  0.00     0.086 H 
ATOM      8  H5  <0> d           0.027  -2.622  -2.126  0.00  0.00     0.083 H 
ATOM      9  H6  <0> d           0.054  -3.803   0.062  0.00  0.00     0.086 H 
ENDROOT
BRANCH   5  10
ATOM     10  C7  <0> d           0.050  -2.683   2.519  0.00  0.00     0.095 C 
BRANCH  10  11
ATOM     11  C8  <0> d           0.042  -1.646   3.643  0.00  0.00    -0.043 C 
ATOM     12  H7  <0> d          -0.857  -1.034   3.566  0.00  0.00     0.032 H 
ATOM     13  H8  <0> d           0.053  -2.154   4.607  0.00  0.00     0.032 H 
ATOM     14  H9  <0> d           0.923  -1.010   3.557  0.00  0.00     0.032 H 
ENDBRANCH  10  11
BRANCH  10  15
ATOM     15  C9  <0> d          -1.186  -3.576   2.639  0.00  0.00    -0.043 C 
ATOM     16  H10 <0> d          -1.180  -4.315   1.838  0.00  0.00     0.032 H 
ATOM     17  H11 <0> d          -1.175  -4.085   3.603  0.00  0.00     0.032 H 
ATOM     18  H12 <0> d          -2.085  -2.964   2.562  0.00  0.00     0.032 H 
ENDBRANCH  10  15
BRANCH  10  19
ATOM     19  O1  <0> d           1.229  -3.485   2.620  0.00  0.00    -0.384 OA
ATOM     20  H13 <0> d           2.053  -2.984   2.552  0.00  0.00     0.211 HD
ENDBRANCH  10  19
ENDBRANCH   5  10
BRANCH   1  21
ATOM     21  C1  <0> d          -0.018   1.503   0.010  0.00  0.00    -0.035 C 
ATOM     22  H1  <0> d           1.004   1.880   0.003  0.00  0.00     0.035 H 
ATOM     23  H2  <0> d          -0.545   1.864  -0.873  0.00  0.00     0.035 H 
ATOM     24  H3  <0> d          -0.529   1.854   0.907  0.00  0.00     0.035 H 
ENDBRANCH   1  21
TORSDOF 5
