REMARK  2 active torsions:
REMARK  status: ('A' for Active; 'I' for Inactive)
REMARK    1  A    between atoms: C1_1  and  C2_2 
REMARK    2  A    between atoms: C8_9  and  C9_11 
ROOT
ATOM      1  C2  <0> d           1.157   3.170   0.008  0.00  0.00    -0.059 A 
ATOM      2  C3  <0> d           1.169   1.783   0.001  0.00  0.00    -0.075 A 
ATOM      3  C4  <0> d          -0.013   1.076   0.008  0.00  0.00    -0.052 A 
ATOM      4  C5  <0> d          -1.229   1.760   0.017  0.00  0.00     0.093 A 
ATOM      5  C6  <0> d          -1.237   3.163   0.031  0.00  0.00     0.106 A 
ATOM      6  C7  <0> d          -0.038   3.860   0.024  0.00  0.00    -0.042 A 
ATOM      7  O1  <0> d          -2.536   3.534   0.046  0.00  0.00    -0.294 OA
ATOM      8  C8  <0> d          -3.288   2.422   0.047  0.00  0.00     0.142 A 
ATOM      9  N1  <0> d          -2.531   1.366   0.034  0.00  0.00    -0.226 NA
ATOM     10  H4  <0> d           2.110   1.255  -0.012  0.00  0.00     0.084 H 
ATOM     11  H5  <0> d           0.002  -0.004   0.002  0.00  0.00     0.087 H 
ATOM     12  H6  <0> d          -0.039   4.939   0.029  0.00  0.00     0.088 H 
ENDROOT
BRANCH   1  13
ATOM     13  C1  <0> d           2.458   3.930  -0.000  0.00  0.00    -0.051 C 
ATOM     14  H1  <0> d           2.763   4.118  -1.030  0.00  0.00     0.033 H 
ATOM     15  H2  <0> d           2.329   4.879   0.520  0.00  0.00     0.033 H 
ATOM     16  H3  <0> d           3.226   3.341   0.503  0.00  0.00     0.033 H 
ENDBRANCH   1  13
BRANCH   8  17
ATOM     17  C9  <0> d          -4.795   2.401   0.062  0.00  0.00    -0.015 C 
ATOM     18  H7  <0> d          -5.168   2.402  -0.962  0.00  0.00     0.038 H 
ATOM     19  H8  <0> d          -5.141   1.503   0.574  0.00  0.00     0.038 H 
ATOM     20  H9  <0> d          -5.165   3.283   0.585  0.00  0.00     0.038 H 
ENDBRANCH   8  17
TORSDOF 2
