REMARK  2 active torsions:
REMARK  status: ('A' for Active; 'I' for Inactive)
REMARK    1  A    between atoms: C6_6  and  C7_7 
REMARK    2  A    between atoms: C7_7  and  N2_11 
ROOT
ATOM      1  C7  <0> d           2.490   1.046  -0.016  0.00  0.00     0.237 C 
ATOM      2  H1  <0> d           2.362   0.011   0.333  0.00  0.00     0.119 H 
ATOM      3  C8  <0> d           3.023   1.024  -1.388  0.00  0.00     0.100 C 
ATOM      4  N1  <0> d           3.434   1.007  -2.447  0.00  0.00    -0.195 NA
ENDROOT
BRANCH   1   5
ATOM      5  C6  <0> d           1.175   1.783   0.000  0.00  0.00    -0.012 A 
ATOM      6  C1  <0> d          -0.013   1.076   0.008  0.00  0.00    -0.071 A 
ATOM      7  C2  <0> d          -1.219   1.750   0.017  0.00  0.00    -0.045 A 
ATOM      8  H2  <0> d           0.002  -0.004   0.002  0.00  0.00     0.084 H 
ATOM      9  C3  <0> d          -1.237   3.135   0.030  0.00  0.00     0.116 A 
ATOM     10  H3  <0> d          -2.147   1.198   0.019  0.00  0.00     0.088 H 
ATOM     11  C4  <0> d          -0.047   3.842   0.023  0.00  0.00    -0.045 A 
ATOM     12  F1  <0> d          -2.416   3.795   0.045  0.00  0.00    -0.206 F 
ATOM     13  C5  <0> d           1.158   3.165   0.009  0.00  0.00    -0.071 A 
ATOM     14  H4  <0> d          -0.060   4.922   0.029  0.00  0.00     0.088 H 
ATOM     15  H5  <0> d           2.087   3.717   0.003  0.00  0.00     0.084 H 
ENDBRANCH   1   5
BRANCH   1  16
ATOM     16  N2  <0> d           3.444   1.728   0.869  0.00  0.00     0.100 N 
ATOM     17  H6  <0> d           4.404   1.190   0.857  0.00  0.00     0.315 HD
ATOM     18  H7  <0> d           3.597   2.759   0.518  0.00  0.00     0.315 HD
ENDBRANCH   1  16
TORSDOF 2
