REMARK  5 active torsions:
REMARK  status: ('A' for Active; 'I' for Inactive)
REMARK    1  A    between atoms: C1_1  and  C2_2 
REMARK    2  A    between atoms: C4_4  and  N3_11 
REMARK    3  A    between atoms: C5_6  and  C6_8 
REMARK    4  A    between atoms: C6_8  and  C7_9 
REMARK    5  A    between atoms: C6_8  and  C8_10 
ROOT
ATOM      1  C2  <0> d           0.002  -0.004   0.002  0.00  0.00     0.036 A 
ATOM      2  C3  <0> d           0.006  -0.696  -1.193  0.00  0.00    -0.016 A 
ATOM      3  C4  <0> d           0.026  -2.092  -1.150  0.00  0.00     0.125 A 
ATOM      4  N1  <0> d           0.040  -2.699   0.033  0.00  0.00    -0.216 NA
ATOM      5  C5  <0> d           0.035  -1.999   1.148  0.00  0.00     0.132 A 
ATOM      6  N2  <0> d           0.022  -0.681   1.141  0.00  0.00    -0.238 NA
ATOM      7  H4  <0> d          -0.006  -0.172  -2.137  0.00  0.00     0.092 H 
ENDROOT
BRANCH   5   8
ATOM      8  C6  <0> d           0.052  -2.724   2.469  0.00  0.00    -0.001 C 
ATOM      9  H5  <0> d           0.046  -1.999   3.282  0.00  0.00     0.051 H 
BRANCH   8  10
ATOM     10  C7  <0> d          -1.185  -3.619   2.575  0.00  0.00    -0.066 C 
ATOM     11  H6  <0> d          -1.173  -4.144   3.530  0.00  0.00     0.028 H 
ATOM     12  H7  <0> d          -2.083  -3.006   2.508  0.00  0.00     0.028 H 
ATOM     13  H8  <0> d          -1.178  -4.345   1.761  0.00  0.00     0.028 H 
ENDBRANCH   8  10
BRANCH   8  14
ATOM     14  C8  <0> d           1.314  -3.584   2.563  0.00  0.00    -0.066 C 
ATOM     15  H9  <0> d           2.195  -2.947   2.487  0.00  0.00     0.028 H 
ATOM     16  H10 <0> d           1.326  -4.109   3.518  0.00  0.00     0.028 H 
ATOM     17  H11 <0> d           1.320  -4.310   1.749  0.00  0.00     0.028 H 
ENDBRANCH   8  14
ENDBRANCH   5   8
BRANCH   3  18
ATOM     18  N3  <0> d           0.030  -2.832  -2.322  0.00  0.00    -0.384 N 
ATOM     19  H12 <0> d           0.019  -2.381  -3.180  0.00  0.00     0.157 HD
ATOM     20  H13 <0> d           0.043  -3.801  -2.283  0.00  0.00     0.157 HD
ENDBRANCH   3  18
BRANCH   1  21
ATOM     21  C1  <0> d          -0.018   1.503   0.010  0.00  0.00    -0.035 C 
ATOM     22  H1  <0> d           1.004   1.880   0.003  0.00  0.00     0.035 H 
ATOM     23  H2  <0> d          -0.545   1.864  -0.873  0.00  0.00     0.035 H 
ATOM     24  H3  <0> d          -0.529   1.854   0.907  0.00  0.00     0.035 H 
ENDBRANCH   1  21
TORSDOF 5
