REMARK  1 active torsions:
REMARK  status: ('A' for Active; 'I' for Inactive)
REMARK    1  A    between atoms: C4_4  and  N1_7 
REMARK       I    between atoms: N1_7  and  C7_8 
REMARK       I    between atoms: C7_8  and  N2_10 
ROOT
ATOM      1  C1  <0> d           2.422  -4.665   0.781  0.00  0.00    -0.065 C 
ATOM      2  C2  <0> d           2.527  -4.146  -0.654  0.00  0.00    -0.063 C 
ATOM      3  C3  <0> d           2.506  -2.616  -0.646  0.00  0.00    -0.046 C 
ATOM      4  C4  <0> d           1.198  -2.127  -0.021  0.00  0.00     0.014 C 
ATOM      5  C5  <0> d           1.093  -2.646   1.415  0.00  0.00    -0.046 C 
ATOM      6  C6  <0> d           1.114  -4.176   1.406  0.00  0.00    -0.063 C 
ATOM      7  H1  <0> d           3.272  -4.290   1.370  0.00  0.00     0.033 H 
ATOM      8  H2  <0> d           2.437  -5.765   0.775  0.00  0.00     0.033 H 
ATOM      9  H3  <0> d           3.468  -4.497  -1.103  0.00  0.00     0.033 H 
ATOM     10  H4  <0> d           1.677  -4.521  -1.243  0.00  0.00     0.033 H 
ATOM     11  H5  <0> d           3.357  -2.241  -0.057  0.00  0.00     0.035 H 
ATOM     12  H6  <0> d           2.582  -2.242  -1.677  0.00  0.00     0.035 H 
ATOM     13  H7  <0> d           0.336  -2.459  -0.617  0.00  0.00     0.072 H 
ATOM     14  H8  <0> d           1.943  -2.271   2.003  0.00  0.00     0.035 H 
ATOM     15  H9  <0> d           0.152  -2.295   1.864  0.00  0.00     0.035 H 
ATOM     16  H10 <0> d           0.264  -4.551   0.817  0.00  0.00     0.033 H 
ATOM     17  H11 <0> d           1.038  -4.549   2.438  0.00  0.00     0.033 H 
ENDROOT
BRANCH   4  18
ATOM     18  N1  <0> d           1.178  -0.662  -0.013  0.00  0.00    -0.339 N 
ATOM     19  C7  <0> d           0.002  -0.004   0.002  0.00  0.00     0.314 C 
ATOM     20  O1  <0> d          -1.042  -0.626   0.009  0.00  0.00    -0.248 OA
ATOM     21  N2  <0> d          -0.016   1.344   0.009  0.00  0.00    -0.352 N 
ATOM     22  H13 <0> d          -0.976   1.881   0.021  0.00  0.00     0.160 HD
ATOM     23  H14 <0> d           0.929   1.907   0.003  0.00  0.00     0.160 HD
ATOM     24  H12 <0> d           2.123  -0.099  -0.019  0.00  0.00     0.164 HD
ENDBRANCH   4  18
TORSDOF 1
