REMARK  4 active torsions:
REMARK  status: ('A' for Active; 'I' for Inactive)
REMARK    1  A    between atoms: C1_1  and  N1_2 
REMARK    2  A    between atoms: N1_2  and  C2_3 
REMARK    3  A    between atoms: N1_2  and  C3_4 
REMARK    4  A    between atoms: C4_7  and  C5_9 
ROOT
ATOM      1  C5  <0> d           1.766   3.161   0.001  0.00  0.00     0.077 C 
ATOM      2  C6  <0> d           1.913   3.631  -1.386  0.00  0.00     0.067 C 
ATOM      3  N4  <0> d           2.027   3.994  -2.456  0.00  0.00    -0.197 NA
ATOM      4  H7  <0> d           1.049   3.794   0.525  0.00  0.00     0.067 H 
ATOM      5  H8  <0> d           2.730   3.211   0.506  0.00  0.00     0.067 H 
ENDROOT
BRANCH   1   6
ATOM      6  C4  <0> d           1.272   1.738  -0.001  0.00  0.00     0.183 A 
ATOM      7  N3  <0> d           2.011   0.668  -0.014  0.00  0.00    -0.124 NA
ATOM      8  N2  <0> d           1.259  -0.376  -0.012  0.00  0.00    -0.103 NA
ATOM      9  C3  <0> d           0.002  -0.004   0.002  0.00  0.00     0.269 A 
ATOM     10  O1  <0> d          -0.016   1.342   0.009  0.00  0.00    -0.259 OA
BRANCH   9  11
ATOM     11  N1  <0> d          -1.100  -0.839   0.009  0.00  0.00    -0.353 N 
BRANCH  11  12
ATOM     12  C1  <0> d          -0.918  -2.293  -0.001  0.00  0.00    -0.016 C 
ATOM     13  H1  <0> d          -0.862  -2.659   1.024  0.00  0.00     0.056 H 
ATOM     14  H2  <0> d          -1.760  -2.761  -0.509  0.00  0.00     0.056 H 
ATOM     15  H3  <0> d           0.006  -2.540  -0.525  0.00  0.00     0.056 H 
ENDBRANCH  11  12
BRANCH  11  16
ATOM     16  C2  <0> d          -2.450  -0.270   0.025  0.00  0.00    -0.016 C 
ATOM     17  H4  <0> d          -2.386   0.818   0.030  0.00  0.00     0.056 H 
ATOM     18  H5  <0> d          -2.993  -0.598  -0.862  0.00  0.00     0.056 H 
ATOM     19  H6  <0> d          -2.975  -0.607   0.918  0.00  0.00     0.056 H 
ENDBRANCH  11  16
ENDBRANCH   9  11
ENDBRANCH   1   6
TORSDOF 4
