REMARK  1 active torsions:
REMARK  status: ('A' for Active; 'I' for Inactive)
REMARK    1  A    between atoms: C1_1  and  C2_2 
ROOT
ATOM      1  C1  <0> d          -0.019   1.526   0.010  0.00  0.00     0.300 C 
ATOM      2  F4  <0> d           1.294   2.010   0.001  0.00  0.00    -0.205 F 
ATOM      3  F5  <0> d          -0.695   1.989  -1.123  0.00  0.00    -0.205 F 
ATOM      4  H1  <0> d          -0.529   1.877   0.907  0.00  0.00     0.159 H 
ENDROOT
BRANCH   1   5
ATOM      5  C2  <0> d           0.002  -0.004   0.002  0.00  0.00     0.447 C 
ATOM      6  F1  <0> d           0.679  -0.468   1.135  0.00  0.00    -0.166 F 
ATOM      7  F2  <0> d          -1.310  -0.488   0.012  0.00  0.00    -0.166 F 
ATOM      8  F3  <0> d           0.657  -0.455  -1.149  0.00  0.00    -0.166 F 
ENDBRANCH   1   5
TORSDOF 1
