REMARK  4 active torsions:
REMARK  status: ('A' for Active; 'I' for Inactive)
REMARK    1  A    between atoms: C1_1  and  C2_2 
REMARK    2  A    between atoms: C2_2  and  C3_3 
REMARK    3  A    between atoms: C3_3  and  N1_4 
REMARK    4  A    between atoms: C6_7  and  C7_9 
ROOT
ATOM      1  N1  <0> d           2.074   0.738  -0.014  0.00  0.00    -0.279 N 
ATOM      2  C4  <0> d           1.296   1.834  -0.001  0.00  0.00     0.020 A 
ATOM      3  C5  <0> d          -0.017   1.409   0.010  0.00  0.00     0.087 A 
ATOM      4  C6  <0> d           0.002  -0.004   0.002  0.00  0.00     0.073 A 
ATOM      5  N2  <0> d           1.248  -0.392  -0.012  0.00  0.00    -0.176 NA
ATOM      6  C8  <0> d          -1.181   2.243   0.020  0.00  0.00     0.103 C 
ATOM      7  N3  <0> d          -2.104   2.904   0.028  0.00  0.00    -0.191 NA
ATOM      8  H8  <0> d           1.635   2.860   0.001  0.00  0.00     0.116 H 
ENDROOT
BRANCH   4   9
ATOM      9  C7  <0> d          -1.205  -0.906   0.008  0.00  0.00    -0.032 C 
ATOM     10  H9  <0> d          -1.506  -1.118  -1.018  0.00  0.00     0.035 H 
ATOM     11  H10 <0> d          -0.959  -1.839   0.515  0.00  0.00     0.035 H 
ATOM     12  H11 <0> d          -2.024  -0.413   0.532  0.00  0.00     0.035 H 
ENDBRANCH   4   9
BRANCH   1  13
ATOM     13  C3  <0> d           3.539   0.728  -0.027  0.00  0.00     0.016 C 
ATOM     14  H6  <0> d           3.890   0.296  -0.964  0.00  0.00     0.067 H 
ATOM     15  H7  <0> d           3.910   1.749   0.064  0.00  0.00     0.067 H 
BRANCH  13  16
ATOM     16  C2  <0> d           4.054  -0.108   1.146  0.00  0.00    -0.052 C 
ATOM     17  H4  <0> d           3.702   0.324   2.082  0.00  0.00     0.035 H 
ATOM     18  H5  <0> d           3.683  -1.129   1.055  0.00  0.00     0.035 H 
BRANCH  16  19
ATOM     19  C1  <0> d           5.584  -0.119   1.131  0.00  0.00    -0.075 C 
ATOM     20  H1  <0> d           5.936  -0.551   0.195  0.00  0.00     0.027 H 
ATOM     21  H2  <0> d           5.955   0.902   1.222  0.00  0.00     0.027 H 
ATOM     22  H3  <0> d           5.951  -0.715   1.967  0.00  0.00     0.027 H 
ENDBRANCH  16  19
ENDBRANCH  13  16
ENDBRANCH   1  13
TORSDOF 4
