REMARK  1 active torsions:
REMARK  status: ('A' for Active; 'I' for Inactive)
REMARK    1  A    between atoms: C1_1  and  C2_2 
ROOT
ATOM      1  C2  <0> d           2.317   1.229  -0.013  0.00  0.00     0.003 A 
ATOM      2  C3  <0> d           1.200   2.004   0.001  0.00  0.00    -0.001 A 
ATOM      3  C4  <0> d          -0.016   1.345   0.009  0.00  0.00     0.274 A 
ATOM      4  O1  <0> d          -1.070   1.963   0.018  0.00  0.00    -0.266 OA
ATOM      5  N1  <0> d           0.002  -0.004   0.002  0.00  0.00    -0.171 NA
ATOM      6  S1  <0> d           1.669  -0.377  -0.016  0.00  0.00     0.010 SA
ATOM      7  H4  <0> d           1.259   3.082   0.006  0.00  0.00     0.093 H 
ENDROOT
BRANCH   1   8
ATOM      8  C1  <0> d           3.760   1.661  -0.024  0.00  0.00    -0.044 C 
ATOM      9  H1  <0> d           3.814   2.760  -0.019  0.00  0.00     0.034 H 
ATOM     10  H2  <0> d           4.252   1.274  -0.929  0.00  0.00     0.034 H 
ATOM     11  H3  <0> d           4.268   1.265   0.867  0.00  0.00     0.034 H 
ENDBRANCH   1   8
TORSDOF 1
