REMARK  7 active torsions:
REMARK  status: ('A' for Active; 'I' for Inactive)
REMARK    1  A    between atoms: C1_1  and  C2_2 
REMARK    2  A    between atoms: C2_2  and  C3_3 
REMARK    3  A    between atoms: C2_2  and  C4_4 
REMARK    4  A    between atoms: C4_4  and  C5_5 
REMARK    5  A    between atoms: C5_5  and  C6_7 
REMARK    6  A    between atoms: C6_7  and  O2_8 
REMARK    7  A    between atoms: O2_8  and  C7_9 
ROOT
ATOM      1  C4  <0> d           0.742  -0.511   1.242  0.00  0.00    -0.005 C 
ATOM      2  H8  <0> d           0.835  -1.596   1.191  0.00  0.00     0.044 H 
ATOM      3  H9  <0> d           1.735  -0.063   1.280  0.00  0.00     0.044 H 
ENDROOT
BRANCH   1   4
ATOM      4  C2  <0> d           0.002  -0.004   0.002  0.00  0.00    -0.055 C 
ATOM      5  H4  <0> d          -1.020  -0.381   0.010  0.00  0.00     0.039 H 
BRANCH   4   6
ATOM      6  C1  <0> d          -0.019   1.526   0.010  0.00  0.00    -0.073 C 
ATOM      7  H1  <0> d           1.004   1.903   0.003  0.00  0.00     0.028 H 
ATOM      8  H2  <0> d          -0.546   1.887  -0.873  0.00  0.00     0.028 H 
ATOM      9  H3  <0> d          -0.529   1.877   0.907  0.00  0.00     0.028 H 
ENDBRANCH   4   6
BRANCH   4  10
ATOM     10  C3  <0> d           0.718  -0.497  -1.257  0.00  0.00    -0.073 C 
ATOM     11  H5  <0> d           1.741  -0.120  -1.264  0.00  0.00     0.028 H 
ATOM     12  H6  <0> d           0.733  -1.587  -1.263  0.00  0.00     0.028 H 
ATOM     13  H7  <0> d           0.191  -0.136  -2.140  0.00  0.00     0.028 H 
ENDBRANCH   4  10
ENDBRANCH   1   4
BRANCH   1  14
ATOM     14  C5  <0> d          -0.030  -0.130   2.478  0.00  0.00     0.150 C 
ATOM     15  O1  <0> d          -1.065   0.484   2.379  0.00  0.00    -0.296 OA
BRANCH  14  16
ATOM     16  C6  <0> d           0.490  -0.514   3.840  0.00  0.00     0.073 C 
ATOM     17  H10 <0> d           0.572  -1.599   3.904  0.00  0.00     0.086 H 
ATOM     18  H11 <0> d           1.472  -0.066   3.993  0.00  0.00     0.086 H 
BRANCH  16  19
ATOM     19  O2  <0> d          -0.411  -0.043   4.844  0.00  0.00    -0.389 OA
BRANCH  19  20
ATOM     20  C7  <0> d          -0.009  -0.357   6.179  0.00  0.00     0.004 C 
ATOM     21  H12 <0> d           0.062  -1.439   6.292  0.00  0.00     0.066 H 
ATOM     22  H13 <0> d           0.963   0.094   6.381  0.00  0.00     0.066 H 
ATOM     23  H14 <0> d          -0.744   0.034   6.881  0.00  0.00     0.066 H 
ENDBRANCH  19  20
ENDBRANCH  16  19
ENDBRANCH  14  16
ENDBRANCH   1  14
TORSDOF 7
