REMARK  3 active torsions:
REMARK  status: ('A' for Active; 'I' for Inactive)
REMARK    1  A    between atoms: C1_1  and  C2_2 
REMARK    2  A    between atoms: C4_4  and  C6_9 
REMARK    3  A    between atoms: C5_5  and  O1_6 
ROOT
ATOM      1  C2  <0> d           0.002  -0.004   0.002  0.00  0.00     0.054 A 
ATOM      2  C3  <0> d           0.006  -0.688  -1.202  0.00  0.00    -0.037 A 
ATOM      3  C4  <0> d           0.025  -2.090  -1.159  0.00  0.00     0.097 A 
ATOM      4  C5  <0> d           0.039  -2.703   0.106  0.00  0.00     0.201 A 
ATOM      5  N1  <0> d           0.034  -1.949   1.196  0.00  0.00    -0.124 NA
ATOM      6  N2  <0> d           0.022  -0.668   1.141  0.00  0.00    -0.153 NA
ATOM      7  H4  <0> d          -0.006  -0.160  -2.144  0.00  0.00     0.088 H 
ENDROOT
BRANCH   1   8
ATOM      8  C1  <0> d          -0.018   1.503   0.010  0.00  0.00    -0.034 C 
ATOM      9  H1  <0> d           1.004   1.880   0.003  0.00  0.00     0.035 H 
ATOM     10  H2  <0> d          -0.545   1.864  -0.873  0.00  0.00     0.035 H 
ATOM     11  H3  <0> d          -0.529   1.854   0.907  0.00  0.00     0.035 H 
ENDBRANCH   1   8
BRANCH   3  12
ATOM     12  C6  <0> d           0.029  -2.892  -2.398  0.00  0.00     0.213 C 
ATOM     13  O2  <0> d           0.016  -2.335  -3.487  0.00  0.00    -0.644 OA
ATOM     14  O3  <0> d           0.046  -4.113  -2.335  0.00  0.00    -0.644 OA
ENDBRANCH   3  12
BRANCH   4  15
ATOM     15  O1  <0> d           0.059  -4.053   0.209  0.00  0.00    -0.343 OA
ATOM     16  H5  <0> d           0.947  -4.433   0.235  0.00  0.00     0.219 HD
ENDBRANCH   4  15
TORSDOF 3
