REMARK  1 active torsions:
REMARK  status: ('A' for Active; 'I' for Inactive)
REMARK    1  A    between atoms: C1_1  and  C2_6 
ROOT
ATOM      1  C1  <0> d          -0.016   1.306   0.009  0.00  0.00     0.253 A 
ATOM      2  N1  <0> d           1.268   1.710  -0.001  0.00  0.00    -0.236 N 
ATOM      3  N2  <0> d           2.000   0.648  -0.014  0.00  0.00    -0.046 NA
ATOM      4  N3  <0> d           1.233  -0.385  -0.012  0.00  0.00    -0.023 NA
ATOM      5  N4  <0> d           0.002  -0.004   0.002  0.00  0.00    -0.104 NA
ATOM      6  H1  <0> d           1.584   2.628   0.001  0.00  0.00     0.192 HD
ENDROOT
BRANCH   1   7
ATOM      7  C2  <0> d          -1.237   2.190   0.031  0.00  0.00     0.454 C 
ATOM      8  F1  <0> d          -2.356   1.429   0.384  0.00  0.00    -0.163 F 
ATOM      9  F2  <0> d          -1.055   3.213   0.967  0.00  0.00    -0.163 F 
ATOM     10  F3  <0> d          -1.432   2.747  -1.237  0.00  0.00    -0.163 F 
ENDBRANCH   1   7
TORSDOF 1
