REMARK  1 active torsions:
REMARK  status: ('A' for Active; 'I' for Inactive)
REMARK    1  A    between atoms: C3_3  and  C6_7 
ROOT
ATOM      1  C1  <0> d          -3.547  -1.239   0.029  0.00  0.00    -0.065 A 
ATOM      2  C2  <0> d          -2.474  -0.364   0.024  0.00  0.00    -0.069 A 
ATOM      3  C3  <0> d          -1.184  -0.898   0.009  0.00  0.00    -0.005 A 
ATOM      4  C4  <0> d          -1.027  -2.282  -0.007  0.00  0.00     0.013 A 
ATOM      5  N1  <0> d          -2.078  -3.076   0.004  0.00  0.00    -0.272 NA
ATOM      6  C5  <0> d          -3.309  -2.601   0.019  0.00  0.00     0.002 A 
ATOM      7  H2  <0> d          -4.559  -0.863   0.041  0.00  0.00     0.085 H 
ATOM      8  H3  <0> d          -2.632   0.705   0.033  0.00  0.00     0.085 H 
ATOM      9  H4  <0> d          -0.035  -2.708  -0.024  0.00  0.00     0.116 H 
ATOM     10  H5  <0> d          -4.143  -3.287   0.023  0.00  0.00     0.114 H 
ENDROOT
BRANCH   3  11
ATOM     11  C6  <0> d           0.002  -0.004   0.002  0.00  0.00     0.012 A 
ATOM     12  C8  <0> d          -0.017   1.404   0.010  0.00  0.00     0.034 A 
ATOM     13  N3  <0> d           1.219   1.827   0.000  0.00  0.00    -0.187 NA
ATOM     14  H7  <0> d          -0.900   2.026   0.018  0.00  0.00     0.118 H 
ATOM     15  N2  <0> d           2.070   0.715  -0.014  0.00  0.00    -0.289 N 
ATOM     16  C7  <0> d           1.308  -0.398  -0.013  0.00  0.00     0.008 A 
ATOM     17  H1  <0> d           3.069   0.741  -0.023  0.00  0.00     0.188 HD
ATOM     18  H6  <0> d           1.667  -1.416  -0.021  0.00  0.00     0.115 H 
ENDBRANCH   3  11
TORSDOF 1
