REMARK  2 active torsions:
REMARK  status: ('A' for Active; 'I' for Inactive)
REMARK    1  A    between atoms: C1_1  and  N1_2 
REMARK    2  A    between atoms: C2_3  and  N3_9 
ROOT
ATOM      1  N1  <0> d          -0.698   1.558   1.213  0.00  0.00    -0.279 N 
ATOM      2  C2  <0> d          -0.110   1.828   2.422  0.00  0.00     0.120 A 
ATOM      3  C3  <0> d          -1.086   2.243   3.283  0.00  0.00     0.027 A 
ATOM      4  C4  <0> d          -2.307   2.231   2.594  0.00  0.00     0.263 A 
ATOM      5  O1  <0> d          -3.393   2.542   3.053  0.00  0.00    -0.267 OA
ATOM      6  N2  <0> d          -2.070   1.819   1.332  0.00  0.00    -0.263 N 
ATOM      7  H1  <0> d          -2.732   1.719   0.631  0.00  0.00     0.190 HD
ATOM      8  H5  <0> d          -0.942   2.531   4.314  0.00  0.00     0.098 H 
ENDROOT
BRANCH   1   9
ATOM      9  C1  <0> d          -0.013   1.086   0.008  0.00  0.00     0.002 C 
ATOM     10  H2  <0> d           0.002  -0.004   0.002  0.00  0.00     0.059 H 
ATOM     11  H3  <0> d           1.010   1.463   0.000  0.00  0.00     0.059 H 
ATOM     12  H4  <0> d          -0.540   1.447  -0.875  0.00  0.00     0.059 H 
ENDBRANCH   1   9
BRANCH   2  13
ATOM     13  N3  <0> d           1.224   1.704   2.715  0.00  0.00    -0.384 N 
ATOM     14  H6  <0> d           1.844   1.401   2.034  0.00  0.00     0.157 HD
ATOM     15  H7  <0> d           1.547   1.920   3.604  0.00  0.00     0.157 HD
ENDBRANCH   2  13
TORSDOF 2
