REMARK  3 active torsions:
REMARK  status: ('A' for Active; 'I' for Inactive)
REMARK    1  A    between atoms: C1_1  and  N1_2 
REMARK    2  A    between atoms: C4_5  and  C5_7 
REMARK    3  A    between atoms: C5_7  and  O1_8 
ROOT
ATOM      1  N1  <0> d          -0.711   3.144   0.025  0.00  0.00    -0.285 N 
ATOM      2  C2  <0> d          -1.117   1.857   0.017  0.00  0.00    -0.000 A 
ATOM      3  C3  <0> d          -0.013   1.076   0.008  0.00  0.00    -0.039 A 
ATOM      4  C4  <0> d           1.107   1.914   0.002  0.00  0.00     0.079 A 
ATOM      5  N2  <0> d           0.690   3.154   0.012  0.00  0.00    -0.176 NA
ATOM      6  H4  <0> d          -2.141   1.512   0.019  0.00  0.00     0.114 H 
ATOM      7  H5  <0> d           0.002  -0.004   0.002  0.00  0.00     0.088 H 
ENDROOT
BRANCH   4   8
ATOM      8  C5  <0> d           2.546   1.466  -0.014  0.00  0.00     0.058 C 
ATOM      9  H6  <0> d           3.037   1.854  -0.907  0.00  0.00     0.083 H 
ATOM     10  H7  <0> d           3.054   1.844   0.873  0.00  0.00     0.083 H 
BRANCH   8  11
ATOM     11  O1  <0> d           2.600   0.038  -0.022  0.00  0.00    -0.395 OA
ATOM     12  H8  <0> d           3.498  -0.321  -0.033  0.00  0.00     0.209 HD
ENDBRANCH   8  11
ENDBRANCH   4   8
BRANCH   1  13
ATOM     13  C1  <0> d          -1.581   4.322   0.039  0.00  0.00     0.002 C 
ATOM     14  H1  <0> d          -1.807   4.620  -0.985  0.00  0.00     0.059 H 
ATOM     15  H2  <0> d          -2.509   4.083   0.560  0.00  0.00     0.059 H 
ATOM     16  H3  <0> d          -1.077   5.141   0.553  0.00  0.00     0.059 H 
ENDBRANCH   1  13
TORSDOF 3
