REMARK  4 active torsions:
REMARK  status: ('A' for Active; 'I' for Inactive)
REMARK    1  A    between atoms: C1_1  and  O1_2 
REMARK    2  A    between atoms: O1_2  and  C2_3 
REMARK    3  A    between atoms: C7_8  and  O2_9 
REMARK    4  A    between atoms: O2_9  and  C8_10 
ROOT
ATOM      1  C2  <0> d          -0.017   1.387   0.010  0.00  0.00     0.101 A 
ATOM      2  C3  <0> d           1.175   2.093   0.002  0.00  0.00    -0.048 A 
ATOM      3  C4  <0> d           2.380   1.415  -0.013  0.00  0.00    -0.080 A 
ATOM      4  C5  <0> d           2.399   0.033  -0.021  0.00  0.00    -0.080 A 
ATOM      5  C6  <0> d           1.213  -0.677  -0.013  0.00  0.00    -0.048 A 
ATOM      6  C7  <0> d           0.002  -0.004   0.002  0.00  0.00     0.101 A 
ATOM      7  H4  <0> d           1.164   3.173   0.008  0.00  0.00     0.087 H 
ATOM      8  H5  <0> d           3.309   1.967  -0.020  0.00  0.00     0.083 H 
ATOM      9  H6  <0> d           3.342  -0.493  -0.033  0.00  0.00     0.083 H 
ATOM     10  H7  <0> d           1.230  -1.757  -0.019  0.00  0.00     0.087 H 
ENDROOT
BRANCH   1  11
ATOM     11  O1  <0> d          -1.203   2.053   0.019  0.00  0.00    -0.353 OA
BRANCH  11  12
ATOM     12  C1  <0> d          -1.146   3.481   0.026  0.00  0.00     0.010 C 
ATOM     13  H1  <0> d          -0.613   3.818   0.916  0.00  0.00     0.066 H 
ATOM     14  H2  <0> d          -0.622   3.828  -0.864  0.00  0.00     0.066 H 
ATOM     15  H3  <0> d          -2.158   3.885   0.033  0.00  0.00     0.066 H 
ENDBRANCH  11  12
ENDBRANCH   1  11
BRANCH   6  16
ATOM     16  O2  <0> d          -1.165  -0.702   0.009  0.00  0.00    -0.353 OA
BRANCH  16  17
ATOM     17  C8  <0> d          -1.069  -2.127   0.000  0.00  0.00     0.010 C 
ATOM     18  H8  <0> d          -0.524  -2.460   0.884  0.00  0.00     0.066 H 
ATOM     19  H9  <0> d          -2.070  -2.559   0.007  0.00  0.00     0.066 H 
ATOM     20  H10 <0> d          -0.541  -2.450  -0.896  0.00  0.00     0.066 H 
ENDBRANCH  16  17
ENDBRANCH   6  16
TORSDOF 4
