REMARK  1 active torsions:
REMARK  status: ('A' for Active; 'I' for Inactive)
REMARK    1  A    between atoms: C1_1  and  C2_2 
ROOT
ATOM      1  C2  <0> d           2.395   0.004  -0.021  0.00  0.00    -0.058 A 
ATOM      2  C3  <0> d           1.200  -0.699  -0.013  0.00  0.00    -0.060 A 
ATOM      3  C4  <0> d           0.002  -0.004   0.002  0.00  0.00     0.004 A 
ATOM      4  N1  <0> d          -0.016   1.312   0.009  0.00  0.00    -0.250 NA
ATOM      5  C5  <0> d           1.105   2.023   0.002  0.00  0.00     0.136 A 
ATOM      6  C6  <0> d           2.347   1.389  -0.013  0.00  0.00    -0.039 A 
ATOM      7  C7  <0> d           1.039   3.454   0.010  0.00  0.00     0.119 C 
ATOM      8  N2  <0> d           0.986   4.588   0.016  0.00  0.00    -0.190 NA
ATOM      9  H4  <0> d           1.203  -1.779  -0.019  0.00  0.00     0.086 H 
ATOM     10  H5  <0> d          -0.930  -0.549   0.008  0.00  0.00     0.114 H 
ATOM     11  H6  <0> d           3.258   1.968  -0.019  0.00  0.00     0.088 H 
ENDROOT
BRANCH   1  12
ATOM     12  C1  <0> d           3.716  -0.721  -0.038  0.00  0.00    -0.051 C 
ATOM     13  H1  <0> d           4.024  -0.890  -1.069  0.00  0.00     0.033 H 
ATOM     14  H2  <0> d           4.467  -0.119   0.472  0.00  0.00     0.033 H 
ATOM     15  H3  <0> d           3.611  -1.679   0.472  0.00  0.00     0.033 H 
ENDBRANCH   1  12
TORSDOF 1
