REMARK  3 active torsions:
REMARK  status: ('A' for Active; 'I' for Inactive)
REMARK    1  A    between atoms: C1_1  and  C2_2 
REMARK    2  A    between atoms: C6_6  and  N1_8 
REMARK    3  A    between atoms: N1_8  and  C8_9 
ROOT
ATOM      1  C2  <0> d          -1.220   1.749   0.017  0.00  0.00    -0.060 A 
ATOM      2  C3  <0> d          -0.013   1.076   0.008  0.00  0.00    -0.077 A 
ATOM      3  C4  <0> d           1.176   1.782   0.000  0.00  0.00    -0.080 A 
ATOM      4  C5  <0> d           1.161   3.163   0.008  0.00  0.00    -0.058 A 
ATOM      5  C6  <0> d          -0.050   3.842   0.023  0.00  0.00     0.028 A 
ATOM      6  C7  <0> d          -1.243   3.130   0.031  0.00  0.00    -0.052 A 
ATOM      7  H4  <0> d           0.002  -0.004   0.002  0.00  0.00     0.084 H 
ATOM      8  H5  <0> d           2.118   1.253  -0.012  0.00  0.00     0.083 H 
ATOM      9  H6  <0> d           2.090   3.714   0.002  0.00  0.00     0.086 H 
ATOM     10  H7  <0> d          -2.186   3.655   0.043  0.00  0.00     0.087 H 
ENDROOT
BRANCH   5  11
ATOM     11  N1  <0> d          -0.069   5.239   0.031  0.00  0.00    -0.394 N 
ATOM     12  H8  <0> d          -0.916   5.713   0.042  0.00  0.00     0.159 HD
BRANCH  11  13
ATOM     13  C8  <0> d           1.190   5.989   0.024  0.00  0.00    -0.021 C 
ATOM     14  H9  <0> d           0.976   7.058   0.032  0.00  0.00     0.056 H 
ATOM     15  H10 <0> d           1.773   5.728   0.907  0.00  0.00     0.056 H 
ATOM     16  H11 <0> d           1.756   5.738  -0.873  0.00  0.00     0.056 H 
ENDBRANCH  11  13
ENDBRANCH   5  11
BRANCH   1  17
ATOM     17  C1  <0> d          -2.514   0.976   0.019  0.00  0.00    -0.051 C 
ATOM     18  H1  <0> d          -2.821   0.783   1.047  0.00  0.00     0.033 H 
ATOM     19  H2  <0> d          -3.285   1.556  -0.488  0.00  0.00     0.033 H 
ATOM     20  H3  <0> d          -2.371   0.028  -0.501  0.00  0.00     0.033 H 
ENDBRANCH   1  17
TORSDOF 3
