REMARK  2 active torsions:
REMARK  status: ('A' for Active; 'I' for Inactive)
REMARK    1  A    between atoms: C1_1  and  C2_2 
REMARK    2  A    between atoms: C2_2  and  N1_3 
ROOT
ATOM      1  N1  <0> d           1.263   1.778  -0.001  0.00  0.00    -0.282 N 
ATOM      2  C3  <0> d          -0.016   1.349   0.009  0.00  0.00    -0.000 A 
ATOM      3  C4  <0> d           0.002  -0.004   0.002  0.00  0.00    -0.048 A 
ATOM      4  C5  <0> d           1.339  -0.416  -0.013  0.00  0.00     0.023 A 
ATOM      5  N2  <0> d           2.095   0.651  -0.015  0.00  0.00    -0.185 NA
ATOM      6  H6  <0> d          -0.897   1.974   0.017  0.00  0.00     0.114 H 
ATOM      7  H7  <0> d          -0.863  -0.651   0.007  0.00  0.00     0.087 H 
ATOM      8  H8  <0> d           1.686  -1.439  -0.022  0.00  0.00     0.117 H 
ENDROOT
BRANCH   1   9
ATOM      9  C2  <0> d           1.704   3.175   0.003  0.00  0.00     0.013 C 
ATOM     10  H4  <0> d           2.219   3.396  -0.932  0.00  0.00     0.066 H 
ATOM     11  H5  <0> d           0.838   3.829   0.104  0.00  0.00     0.066 H 
BRANCH   9  12
ATOM     12  C1  <0> d           2.658   3.406   1.177  0.00  0.00    -0.059 C 
ATOM     13  H1  <0> d           2.986   4.445   1.179  0.00  0.00     0.029 H 
ATOM     14  H2  <0> d           2.143   3.185   2.112  0.00  0.00     0.029 H 
ATOM     15  H3  <0> d           3.524   2.752   1.075  0.00  0.00     0.029 H 
ENDBRANCH   9  12
ENDBRANCH   1   9
TORSDOF 2
