REMARK  1 active torsions:
REMARK  status: ('A' for Active; 'I' for Inactive)
REMARK    1  A    between atoms: C5_6  and  N2_7 
ROOT
ATOM      1  C1  <0> d          -0.017   1.390   0.010  0.00  0.00    -0.041 A 
ATOM      2  C2  <0> d           1.179   2.083   0.002  0.00  0.00     0.006 A 
ATOM      3  N1  <0> d           2.332   1.446  -0.013  0.00  0.00    -0.250 NA
ATOM      4  C3  <0> d           2.398   0.118  -0.021  0.00  0.00     0.138 A 
ATOM      5  C4  <0> d           1.238  -0.649  -0.013  0.00  0.00    -0.020 A 
ATOM      6  C5  <0> d           0.002  -0.004   0.002  0.00  0.00     0.029 A 
ATOM      7  C6  <0> d           3.676  -0.528  -0.037  0.00  0.00     0.119 C 
ATOM      8  N3  <0> d           4.690  -1.041  -0.051  0.00  0.00    -0.190 NA
ATOM      9  H1  <0> d          -0.956   1.923   0.026  0.00  0.00     0.089 H 
ATOM     10  H2  <0> d           1.168   3.163   0.008  0.00  0.00     0.114 H 
ATOM     11  H3  <0> d           1.293  -1.728  -0.020  0.00  0.00     0.091 H 
ENDROOT
BRANCH   6  12
ATOM     12  N2  <0> d          -1.183  -0.734   0.010  0.00  0.00    -0.399 N 
ATOM     13  H4  <0> d          -2.037  -0.272   0.021  0.00  0.00     0.156 HD
ATOM     14  H5  <0> d          -1.156  -1.703   0.004  0.00  0.00     0.156 HD
ENDBRANCH   6  12
TORSDOF 1
