REMARK  4 active torsions:
REMARK  status: ('A' for Active; 'I' for Inactive)
REMARK    1  A    between atoms: C1_1  and  C2_2 
REMARK    2  A    between atoms: C5_5  and  O1_9 
REMARK    3  A    between atoms: O1_9  and  C8_10 
REMARK    4  A    between atoms: C8_10  and  C9_12 
ROOT
ATOM      1  C2  <0> d          -3.115   4.748   4.486  0.00  0.00    -0.087 C 
ATOM      2  C3  <0> d          -3.730   4.080   3.564  0.00  0.00    -0.099 C 
ATOM      3  C4  <0> d          -3.045   3.421   2.402  0.00  0.00    -0.025 C 
ATOM      4  C5  <0> d          -1.547   3.284   2.683  0.00  0.00     0.051 C 
ATOM      5  H1  <0> d          -1.386   2.533   3.457  0.00  0.00     0.084 H 
ATOM      6  C6  <0> d          -1.012   4.640   3.162  0.00  0.00    -0.037 C 
ATOM      7  C7  <0> d          -1.628   4.950   4.527  0.00  0.00    -0.043 C 
ATOM      8  H5  <0> d          -4.804   3.991   3.635  0.00  0.00     0.077 H 
ATOM      9  H6  <0> d          -3.191   4.026   1.507  0.00  0.00     0.042 H 
ATOM     10  H7  <0> d          -3.474   2.433   2.242  0.00  0.00     0.042 H 
ATOM     11  H8  <0> d           0.074   4.596   3.248  0.00  0.00     0.037 H 
ATOM     12  H9  <0> d          -1.295   5.417   2.452  0.00  0.00     0.037 H 
ATOM     13  H10 <0> d          -1.411   5.983   4.796  0.00  0.00     0.039 H 
ATOM     14  H11 <0> d          -1.194   4.285   5.274  0.00  0.00     0.039 H 
ENDROOT
BRANCH   4  15
ATOM     15  O1  <0> d          -0.857   2.889   1.469  0.00  0.00    -0.316 OA
BRANCH  15  16
ATOM     16  C8  <0> d          -0.718   1.572   1.248  0.00  0.00     0.255 C 
ATOM     17  O2  <0> d          -1.159   0.776   2.043  0.00  0.00    -0.266 OA
BRANCH  16  18
ATOM     18  C9  <0> d          -0.013   1.086   0.008  0.00  0.00     0.004 C 
ATOM     19  H12 <0> d           0.002  -0.004   0.002  0.00  0.00     0.041 H 
ATOM     20  H13 <0> d           1.010   1.463   0.000  0.00  0.00     0.041 H 
ATOM     21  H14 <0> d          -0.540   1.447  -0.875  0.00  0.00     0.041 H 
ENDBRANCH  16  18
ENDBRANCH  15  16
ENDBRANCH   4  15
BRANCH   1  22
ATOM     22  C1  <0> d          -3.942   5.362   5.585  0.00  0.00    -0.055 C 
ATOM     23  H2  <0> d          -4.994   5.132   5.420  0.00  0.00     0.033 H 
ATOM     24  H3  <0> d          -3.628   4.955   6.547  0.00  0.00     0.033 H 
ATOM     25  H4  <0> d          -3.802   6.443   5.585  0.00  0.00     0.033 H 
ENDBRANCH   1  22
TORSDOF 4
