REMARK  2 active torsions:
REMARK  status: ('A' for Active; 'I' for Inactive)
REMARK    1  A    between atoms: C2_2  and  C3_3 
REMARK    2  A    between atoms: C5_5  and  C8_9 
ROOT
ATOM      1  C1  <0> d           0.018  -1.178  -0.004  0.00  0.00    -0.149 C 
ATOM      2  C2  <0> d           0.002  -0.004   0.002  0.00  0.00    -0.076 C 
ATOM      3  H1  <0> d           0.032  -2.228  -0.010  0.00  0.00     0.166 H 
ENDROOT
BRANCH   2   4
ATOM      4  C3  <0> d          -0.017   1.428   0.010  0.00  0.00     0.035 A 
ATOM      5  C7  <0> d           1.176   2.152   0.002  0.00  0.00     0.020 A 
ATOM      6  N1  <0> d           1.167   3.470   0.005  0.00  0.00    -0.270 NA
ATOM      7  H4  <0> d           2.119   1.626  -0.009  0.00  0.00     0.117 H 
ATOM      8  C6  <0> d           0.045   4.161   0.024  0.00  0.00     0.020 A 
ATOM      9  C5  <0> d          -1.193   3.517   0.038  0.00  0.00     0.035 A 
ATOM     10  H3  <0> d           0.085   5.240   0.030  0.00  0.00     0.117 H 
ATOM     11  C4  <0> d          -1.231   2.120   0.031  0.00  0.00    -0.044 A 
ATOM     12  H2  <0> d          -2.172   1.590   0.041  0.00  0.00     0.088 H 
BRANCH   9  13
ATOM     13  C8  <0> d          -2.407   4.276   0.059  0.00  0.00    -0.076 C 
ATOM     14  C9  <0> d          -3.402   4.899   0.077  0.00  0.00    -0.149 C 
ATOM     15  H5  <0> d          -4.292   5.456   0.092  0.00  0.00     0.166 H 
ENDBRANCH   9  13
ENDBRANCH   2   4
TORSDOF 2
