REMARK  0 active torsions:
REMARK  status: ('A' for Active; 'I' for Inactive)
ROOT
ATOM      1  C1  <0> d           1.008   3.233   0.668  0.00  0.00    -0.052 C 
ATOM      2  C2  <0> d           1.323   1.874  -0.001  0.00  0.00    -0.049 C 
ATOM      3  H1  <0> d           2.196   1.357   0.398  0.00  0.00     0.040 H 
ATOM      4  C3  <0> d           1.177   1.911  -1.531  0.00  0.00    -0.051 C 
ATOM      5  C4  <0> d          -0.346   1.862  -1.295  0.00  0.00     0.008 C 
ATOM      6  H2  <0> d          -0.797   1.485  -2.104  0.00  0.00     0.052 H 
ATOM      7  C5  <0> d          -0.013   1.086   0.008  0.00  0.00    -0.040 C 
ATOM      8  H3  <0> d           0.002  -0.004   0.002  0.00  0.00     0.041 H 
ATOM      9  C6  <0> d          -0.871   1.801   1.094  0.00  0.00    -0.051 C 
ATOM     10  C7  <0> d          -0.555   3.287   0.645  0.00  0.00     0.005 C 
ATOM     11  H4  <0> d          -0.870   4.065   1.188  0.00  0.00     0.051 H 
ATOM     12  C8  <0> d          -0.877   3.245  -0.857  0.00  0.00     0.135 C 
ATOM     13  O1  <0> d          -1.425   4.091  -1.522  0.00  0.00    -0.297 OA
ATOM     14  H5  <0> d           1.378   3.253   1.693  0.00  0.00     0.034 H 
ATOM     15  H6  <0> d           1.432   4.054   0.090  0.00  0.00     0.034 H 
ATOM     16  H7  <0> d           1.521   2.842  -1.982  0.00  0.00     0.034 H 
ATOM     17  H8  <0> d           1.572   1.026  -2.030  0.00  0.00     0.034 H 
ATOM     18  H9  <0> d          -1.929   1.558   0.997  0.00  0.00     0.034 H 
ATOM     19  H10 <0> d          -0.503   1.594   2.099  0.00  0.00     0.034 H 
ENDROOT
TORSDOF 0
