REMARK  0 active torsions:
REMARK  status: ('A' for Active; 'I' for Inactive)
ROOT
ATOM      1  C1  <0> d          -0.017   1.395   0.010  0.00  0.00    -0.043 A 
ATOM      2  C2  <0> d           1.181   2.081   0.002  0.00  0.00     0.003 A 
ATOM      3  N1  <0> d           2.332   1.438  -0.013  0.00  0.00    -0.270 NA
ATOM      4  C3  <0> d           2.398   0.121  -0.020  0.00  0.00     0.040 A 
ATOM      5  C4  <0> d           1.247  -0.648  -0.013  0.00  0.00     0.154 A 
ATOM      6  C5  <0> d           0.002  -0.004   0.002  0.00  0.00     0.086 A 
ATOM      7  C6  <0> d          -1.216  -0.757   0.010  0.00  0.00     0.102 C 
ATOM      8  N2  <0> d          -2.182  -1.355   0.017  0.00  0.00    -0.191 NA
ATOM      9  F1  <0> d           1.323  -1.996  -0.022  0.00  0.00    -0.203 F 
ATOM     10  H1  <0> d          -0.955   1.931   0.026  0.00  0.00     0.088 H 
ATOM     11  H2  <0> d           1.175   3.161   0.007  0.00  0.00     0.114 H 
ATOM     12  H3  <0> d           3.363  -0.364  -0.032  0.00  0.00     0.119 H 
ENDROOT
TORSDOF 0
