REMARK  1 active torsions:
REMARK  status: ('A' for Active; 'I' for Inactive)
REMARK    1  A    between atoms: C4_6  and  C5_8 
ROOT
ATOM      1  C1  <0> d           2.157   0.787  -0.776  0.00  0.00    -0.022 C 
ATOM      2  C2  <0> d           1.335  -0.496  -0.520  0.00  0.00     0.019 C 
ATOM      3  C3  <0> d           0.002  -0.004   0.002  0.00  0.00     0.259 C 
ATOM      4  O1  <0> d          -0.909  -0.713   0.359  0.00  0.00    -0.265 OA
ATOM      5  O2  <0> d          -0.016   1.336   0.009  0.00  0.00    -0.305 OA
ATOM      6  C4  <0> d           1.348   1.852  -0.001  0.00  0.00     0.132 C 
ATOM      7  H1  <0> d           1.726   1.950   1.017  0.00  0.00     0.101 H 
ATOM      8  H2  <0> d           3.163   0.691  -0.369  0.00  0.00     0.038 H 
ATOM      9  H3  <0> d           2.191   1.019  -1.841  0.00  0.00     0.038 H 
ATOM     10  H4  <0> d           1.827  -1.119   0.226  0.00  0.00     0.048 H 
ATOM     11  H5  <0> d           1.197  -1.052  -1.447  0.00  0.00     0.048 H 
ENDROOT
BRANCH   6  12
ATOM     12  C5  <0> d           1.405   3.178  -0.714  0.00  0.00     0.203 C 
ATOM     13  O3  <0> d           0.410   3.628  -1.233  0.00  0.00    -0.646 OA
ATOM     14  O4  <0> d           2.559   3.859  -0.774  0.00  0.00    -0.646 OA
ENDBRANCH   6  12
TORSDOF 1
