REMARK  4 active torsions:
REMARK  status: ('A' for Active; 'I' for Inactive)
REMARK    1  A    between atoms: C1_1  and  C2_2 
REMARK    2  A    between atoms: C4_5  and  O4_14 
REMARK    3  A    between atoms: C5_7  and  O3_13 
REMARK    4  A    between atoms: C6_9  and  O2_12 
ROOT
ATOM      1  C2  <0> d           1.217   3.027  -2.486  0.00  0.00     0.040 C 
ATOM      2  H1  <0> d           2.210   3.477  -2.489  0.00  0.00     0.083 H 
ATOM      3  C3  <0> d           0.432   3.531  -1.272  0.00  0.00    -0.015 C 
ATOM      4  C4  <0> d           1.146   3.087   0.008  0.00  0.00     0.067 C 
ATOM      5  H2  <0> d           0.563   3.394   0.876  0.00  0.00     0.087 H 
ATOM      6  C5  <0> d           1.286   1.562  -0.002  0.00  0.00     0.107 C 
ATOM      7  H3  <0> d           1.842   1.242   0.880  0.00  0.00     0.094 H 
ATOM      8  C6  <0> d           2.038   1.134  -1.265  0.00  0.00     0.155 C 
ATOM      9  H4  <0> d           3.042   1.559  -1.252  0.00  0.00     0.133 H 
ATOM     10  O1  <0> d           1.337   1.605  -2.418  0.00  0.00    -0.354 OA
ATOM     11  H8  <0> d          -0.575   3.114  -1.291  0.00  0.00     0.040 H 
ATOM     12  H9  <0> d           0.377   4.619  -1.300  0.00  0.00     0.040 H 
ENDROOT
BRANCH   1  13
ATOM     13  C1  <0> d           0.478   3.415  -3.769  0.00  0.00    -0.052 C 
ATOM     14  H5  <0> d           0.385   4.500  -3.821  0.00  0.00     0.030 H 
ATOM     15  H6  <0> d           1.037   3.057  -4.633  0.00  0.00     0.030 H 
ATOM     16  H7  <0> d          -0.515   2.966  -3.766  0.00  0.00     0.030 H 
ENDBRANCH   1  13
BRANCH   8  17
ATOM     17  O2  <0> d           2.124  -0.292  -1.309  0.00  0.00    -0.369 OA
ATOM     18  H10 <0> d           2.589  -0.634  -2.084  0.00  0.00     0.212 HD
ENDBRANCH   8  17
BRANCH   4  19
ATOM     19  O4  <0> d           2.442   3.686   0.064  0.00  0.00    -0.393 OA
ATOM     20  H12 <0> d           2.954   3.442   0.847  0.00  0.00     0.210 HD
ENDBRANCH   4  19
BRANCH   6  21
ATOM     21  O3  <0> d          -0.011   0.963   0.007  0.00  0.00    -0.388 OA
ATOM     22  H11 <0> d           0.002  -0.004   0.002  0.00  0.00     0.210 HD
ENDBRANCH   6  21
TORSDOF 4
