REMARK  8 active torsions:
REMARK  status: ('A' for Active; 'I' for Inactive)
REMARK    1  A    between atoms: C1_1  and  C2_2 
REMARK    2  A    between atoms: C2_2  and  O1_3 
REMARK    3  A    between atoms: O1_3  and  C3_4 
REMARK    4  A    between atoms: C3_4  and  C4_5 
REMARK    5  A    between atoms: C3_4  and  O2_8 
REMARK    6  A    between atoms: C5_6  and  C6_7 
REMARK    7  A    between atoms: O2_8  and  C7_9 
REMARK    8  A    between atoms: C7_9  and  C8_10 
ROOT
ATOM      1  C3  <0> d           0.078   1.037  -0.135  0.00  0.00     0.191 C 
ATOM      2  H6  <0> d           0.330   0.004  -0.373  0.00  0.00     0.151 H 
ENDROOT
BRANCH   1   3
ATOM      3  O1  <0> d          -0.522   1.656  -1.274  0.00  0.00    -0.351 OA
BRANCH   3   4
ATOM      4  C2  <0> d          -1.329   0.775  -2.057  0.00  0.00     0.020 C 
ATOM      5  H4  <0> d          -0.748  -0.106  -2.328  0.00  0.00     0.073 H 
ATOM      6  H5  <0> d          -2.202   0.471  -1.479  0.00  0.00     0.073 H 
BRANCH   4   7
ATOM      7  C1  <0> d          -1.786   1.495  -3.328  0.00  0.00    -0.056 C 
ATOM      8  H1  <0> d          -0.913   1.799  -3.906  0.00  0.00     0.030 H 
ATOM      9  H2  <0> d          -2.401   0.822  -3.925  0.00  0.00     0.030 H 
ATOM     10  H3  <0> d          -2.367   2.376  -3.057  0.00  0.00     0.030 H 
ENDBRANCH   4   7
ENDBRANCH   3   4
ENDBRANCH   1   3
BRANCH   1  11
ATOM     11  C4  <0> d           1.300   1.768   0.235  0.00  0.00    -0.047 C 
ATOM     12  C5  <0> d           2.276   2.352   0.529  0.00  0.00    -0.106 C 
BRANCH  12  13
ATOM     13  C6  <0> d           3.499   3.083   0.898  0.00  0.00    -0.021 C 
ATOM     14  H7  <0> d           3.246   4.116   1.137  0.00  0.00     0.044 H 
ATOM     15  H8  <0> d           3.956   2.611   1.768  0.00  0.00     0.044 H 
ATOM     16  H9  <0> d           4.199   3.064   0.064  0.00  0.00     0.044 H 
ENDBRANCH  12  13
ENDBRANCH   1  11
BRANCH   1  17
ATOM     17  O2  <0> d          -0.841   1.062   0.960  0.00  0.00    -0.351 OA
BRANCH  17  18
ATOM     18  C7  <0> d          -1.904   0.113   0.848  0.00  0.00     0.020 C 
ATOM     19  H10 <0> d          -2.546   0.384   0.010  0.00  0.00     0.073 H 
ATOM     20  H11 <0> d          -1.488  -0.880   0.680  0.00  0.00     0.073 H 
BRANCH  18  21
ATOM     21  C8  <0> d          -2.724   0.111   2.140  0.00  0.00    -0.056 C 
ATOM     22  H12 <0> d          -2.081  -0.160   2.978  0.00  0.00     0.030 H 
ATOM     23  H13 <0> d          -3.140   1.105   2.308  0.00  0.00     0.030 H 
ATOM     24  H14 <0> d          -3.534  -0.613   2.055  0.00  0.00     0.030 H 
ENDBRANCH  18  21
ENDBRANCH  17  18
ENDBRANCH   1  17
TORSDOF 8
