REMARK  2 active torsions:
REMARK  status: ('A' for Active; 'I' for Inactive)
REMARK    1  A    between atoms: C1_1  and  C2_2 
REMARK    2  A    between atoms: C5_5  and  C8_9 
ROOT
ATOM      1  C8  <0> d           0.059  -4.206  -0.024  0.00  0.00    -0.078 C 
ATOM      2  C9  <0> d           0.075  -5.380  -0.032  0.00  0.00    -0.149 C 
ATOM      3  H7  <0> d           0.088  -6.430  -0.039  0.00  0.00     0.166 H 
ENDROOT
BRANCH   1   4
ATOM      4  C5  <0> d           0.040  -2.774  -0.014  0.00  0.00     0.019 A 
ATOM      5  C4  <0> d           0.024  -2.066  -1.216  0.00  0.00    -0.064 A 
ATOM      6  C3  <0> d           0.006  -0.686  -1.201  0.00  0.00    -0.073 A 
ATOM      7  H5  <0> d           0.026  -2.596  -2.157  0.00  0.00     0.085 H 
ATOM      8  C2  <0> d           0.002  -0.004   0.002  0.00  0.00    -0.023 A 
ATOM      9  H4  <0> d          -0.006  -0.138  -2.131  0.00  0.00     0.084 H 
ATOM     10  C7  <0> d           0.023  -0.700   1.200  0.00  0.00     0.123 A 
ATOM     11  C6  <0> d           0.037  -2.083   1.197  0.00  0.00    -0.027 A 
ATOM     12  F1  <0> d           0.024  -0.028   2.371  0.00  0.00    -0.206 F 
ATOM     13  H6  <0> d           0.049  -2.625   2.131  0.00  0.00     0.090 H 
BRANCH   8  14
ATOM     14  C1  <0> d          -0.018   1.503   0.010  0.00  0.00    -0.048 C 
ATOM     15  H1  <0> d           1.004   1.880   0.003  0.00  0.00     0.033 H 
ATOM     16  H2  <0> d          -0.545   1.864  -0.873  0.00  0.00     0.033 H 
ATOM     17  H3  <0> d          -0.529   1.854   0.907  0.00  0.00     0.033 H 
ENDBRANCH   8  14
ENDBRANCH   1   4
TORSDOF 2
