REMARK  3 active torsions:
REMARK  status: ('A' for Active; 'I' for Inactive)
REMARK    1  A    between atoms: C1_1  and  N1_2 
REMARK    2  A    between atoms: N1_2  and  C2_3 
REMARK    3  A    between atoms: C3_4  and  C4_8 
ROOT
ATOM      1  C2  <0> d           1.246  -0.425  -0.012  0.00  0.00     0.191 A 
ATOM      2  C3  <0> d           2.014   0.841  -0.013  0.00  0.00     0.210 A 
ATOM      3  N2  <0> d           1.063   1.751   0.001  0.00  0.00    -0.094 NA
ATOM      4  O1  <0> d          -0.014   1.204   0.009  0.00  0.00    -0.104 OA
ATOM      5  N3  <0> d           0.002  -0.004   0.002  0.00  0.00    -0.085 NA
ENDROOT
BRANCH   1   6
ATOM      6  N1  <0> d           1.721  -1.729  -0.023  0.00  0.00    -0.375 N 
ATOM      7  H4  <0> d           2.677  -1.897  -0.033  0.00  0.00     0.160 HD
BRANCH   6   8
ATOM      8  C1  <0> d           0.780  -2.852  -0.020  0.00  0.00    -0.019 C 
ATOM      9  H1  <0> d           1.334  -3.790  -0.030  0.00  0.00     0.056 H 
ATOM     10  H2  <0> d           0.161  -2.805   0.876  0.00  0.00     0.056 H 
ATOM     11  H3  <0> d           0.145  -2.795  -0.904  0.00  0.00     0.056 H 
ENDBRANCH   6   8
ENDBRANCH   1   6
BRANCH   2  12
ATOM     12  C4  <0> d           3.481   1.035  -0.025  0.00  0.00     0.235 C 
ATOM     13  O2  <0> d           4.221   0.071  -0.037  0.00  0.00    -0.643 OA
ATOM     14  O3  <0> d           3.997   2.279  -0.024  0.00  0.00    -0.643 OA
ENDBRANCH   2  12
TORSDOF 3
