REMARK  0 active torsions:
REMARK  status: ('A' for Active; 'I' for Inactive)
ROOT
ATOM      1  C1  <0> d          -0.018   1.465   0.010  0.00  0.00     0.136 C 
ATOM      2  C2  <0> d           1.419   1.992  -0.001  0.00  0.00     0.137 C 
ATOM      3  N1  <0> d           2.115   1.485  -1.191  0.00  0.00     0.104 N 
ATOM      4  C3  <0> d           2.135   0.015  -1.199  0.00  0.00     0.239 C 
ATOM      5  H1  <0> d           2.662  -0.346  -0.316  0.00  0.00     0.114 H 
ATOM      6  C4  <0> d           0.698  -0.512  -1.188  0.00  0.00     0.152 C 
ATOM      7  N2  <0> d           0.002  -0.004   0.002  0.00  0.00     0.088 N 
ATOM      8  C5  <0> d           2.824  -0.460  -2.410  0.00  0.00     0.097 C 
ATOM      9  N3  <0> d           3.355  -0.827  -3.345  0.00  0.00    -0.195 NA
ATOM     10  H2  <0> d          -0.527   1.817   0.907  0.00  0.00     0.082 H 
ATOM     11  H3  <0> d          -0.544   1.827  -0.873  0.00  0.00     0.082 H 
ATOM     12  H4  <0> d           1.406   3.082  -0.024  0.00  0.00     0.082 H 
ATOM     13  H5  <0> d           1.938   1.653   0.896  0.00  0.00     0.082 H 
ATOM     14  H6  <0> d           1.698   1.845  -2.036  0.00  0.00     0.317 HD
ATOM     15  H7  <0> d           0.180  -0.173  -2.085  0.00  0.00     0.084 H 
ATOM     16  H8  <0> d           0.711  -1.602  -1.165  0.00  0.00     0.084 H 
ATOM     17  H9  <0> d           0.420  -0.365   0.847  0.00  0.00     0.316 HD
ENDROOT
TORSDOF 0
