REMARK  4 active torsions:
REMARK  status: ('A' for Active; 'I' for Inactive)
REMARK    1  A    between atoms: C1_1  and  C2_2 
REMARK    2  A    between atoms: C2_2  and  C3_3 
REMARK    3  A    between atoms: C3_3  and  C4_4 
REMARK    4  A    between atoms: C4_4  and  C5_5 
ROOT
ATOM      1  C5  <0> d          -2.879  -1.734   1.325  0.00  0.00     0.028 C 
ATOM      2  C6  <0> d          -4.263  -1.236   1.368  0.00  0.00     0.060 C 
ATOM      3  N1  <0> d          -5.332  -0.852   1.401  0.00  0.00    -0.197 NA
ATOM      4  H6  <0> d          -2.880  -2.821   1.417  0.00  0.00     0.056 H 
ATOM      5  H7  <0> d          -2.311  -1.301   2.149  0.00  0.00     0.056 H 
ENDROOT
BRANCH   1   6
ATOM      6  C4  <0> d          -2.244  -1.342   0.016  0.00  0.00     0.020 C 
ATOM      7  H5  <0> d          -2.716  -1.613  -0.916  0.00  0.00     0.061 H 
BRANCH   6   8
ATOM      8  C3  <0> d          -1.121  -0.673   0.009  0.00  0.00    -0.170 C 
BRANCH   8   9
ATOM      9  C2  <0> d           0.002  -0.004   0.002  0.00  0.00     0.003 C 
ATOM     10  H4  <0> d           0.945  -0.531  -0.010  0.00  0.00     0.059 H 
BRANCH   9  11
ATOM     11  C1  <0> d          -0.018   1.503   0.010  0.00  0.00    -0.062 C 
ATOM     12  H1  <0> d           1.004   1.880   0.003  0.00  0.00     0.029 H 
ATOM     13  H2  <0> d          -0.545   1.864  -0.873  0.00  0.00     0.029 H 
ATOM     14  H3  <0> d          -0.529   1.854   0.907  0.00  0.00     0.029 H 
ENDBRANCH   9  11
ENDBRANCH   8   9
ENDBRANCH   6   8
ENDBRANCH   1   6
TORSDOF 4
