REMARK  8 active torsions:
REMARK  status: ('A' for Active; 'I' for Inactive)
REMARK    1  A    between atoms: C1_1  and  C2_2 
REMARK    2  A    between atoms: C2_2  and  C3_3 
REMARK    3  A    between atoms: C3_3  and  C4_5 
REMARK    4  A    between atoms: C3_3  and  C5_6 
REMARK    5  A    between atoms: C5_6  and  C6_8 
REMARK    6  A    between atoms: C6_8  and  C7_10 
REMARK    7  A    between atoms: C6_8  and  C8_11 
REMARK    8  A    between atoms: C8_11  and  C9_12 
ROOT
ATOM      1  C5  <0> d           0.067   1.185   2.485  0.00  0.00     0.134 C 
ATOM      2  O1  <0> d           0.809   0.234   2.438  0.00  0.00    -0.297 OA
ENDROOT
BRANCH   1   3
ATOM      3  C3  <0> d          -0.729   1.579   1.267  0.00  0.00     0.000 C 
ATOM      4  H1  <0> d          -0.814   2.575   1.233  0.00  0.00     0.051 H 
BRANCH   3   5
ATOM      5  C2  <0> d          -0.013   1.086   0.008  0.00  0.00    -0.059 C 
ATOM      6  H6  <0> d           0.002  -0.004   0.002  0.00  0.00     0.033 H 
ATOM      7  H7  <0> d           1.010   1.463   0.000  0.00  0.00     0.033 H 
BRANCH   5   8
ATOM      8  C1  <0> d          -0.753   1.593  -1.232  0.00  0.00    -0.076 C 
ATOM      9  H3  <0> d          -1.775   1.215  -1.224  0.00  0.00     0.027 H 
ATOM     10  H4  <0> d          -0.767   2.683  -1.226  0.00  0.00     0.027 H 
ATOM     11  H5  <0> d          -0.242   1.241  -2.128  0.00  0.00     0.027 H 
ENDBRANCH   5   8
ENDBRANCH   3   5
BRANCH   3  12
ATOM     12  C4  <0> d          -2.121   0.950   1.341  0.00  0.00    -0.066 C 
ATOM     13  H8  <0> d          -2.632   1.301   2.238  0.00  0.00     0.028 H 
ATOM     14  H9  <0> d          -2.697   1.235   0.460  0.00  0.00     0.028 H 
ATOM     15  H10 <0> d          -2.028  -0.136   1.378  0.00  0.00     0.028 H 
ENDBRANCH   3  12
ENDBRANCH   1   3
BRANCH   1  16
ATOM     16  C6  <0> d          -0.065   1.977   3.760  0.00  0.00     0.000 C 
ATOM     17  H2  <0> d          -1.008   2.297   3.857  0.00  0.00     0.051 H 
BRANCH  16  18
ATOM     18  C7  <0> d           0.879   3.179   3.713  0.00  0.00    -0.066 C 
ATOM     19  H11 <0> d           0.784   3.752   4.636  0.00  0.00     0.028 H 
ATOM     20  H12 <0> d           1.907   2.830   3.607  0.00  0.00     0.028 H 
ATOM     21  H13 <0> d           0.621   3.812   2.864  0.00  0.00     0.028 H 
ENDBRANCH  16  18
BRANCH  16  22
ATOM     22  C8  <0> d           0.298   1.089   4.952  0.00  0.00    -0.059 C 
ATOM     23  H14 <0> d          -0.316   0.188   4.934  0.00  0.00     0.033 H 
ATOM     24  H15 <0> d           1.351   0.812   4.891  0.00  0.00     0.033 H 
BRANCH  22  25
ATOM     25  C9  <0> d           0.045   1.853   6.253  0.00  0.00    -0.076 C 
ATOM     26  H16 <0> d           0.659   2.753   6.270  0.00  0.00     0.027 H 
ATOM     27  H17 <0> d          -1.008   2.129   6.313  0.00  0.00     0.027 H 
ATOM     28  H18 <0> d           0.304   1.220   7.102  0.00  0.00     0.027 H 
ENDBRANCH  22  25
ENDBRANCH  16  22
ENDBRANCH   1  16
TORSDOF 8
