REMARK  4 active torsions:
REMARK  status: ('A' for Active; 'I' for Inactive)
REMARK    1  A    between atoms: C1_1  and  C2_2 
REMARK    2  A    between atoms: C2_2  and  C3_4 
REMARK    3  A    between atoms: C2_2  and  O1_10 
REMARK    4  A    between atoms: N2_7  and  C6_9 
ROOT
ATOM      1  C3  <0> d          -0.718   1.572   1.248  0.00  0.00     0.006 A 
ATOM      2  C4  <0> d          -0.606   2.847   1.812  0.00  0.00     0.032 A 
ATOM      3  N1  <0> d          -1.366   2.891   2.876  0.00  0.00    -0.185 NA
ATOM      4  N2  <0> d          -1.986   1.643   3.024  0.00  0.00    -0.285 N 
ATOM      5  C5  <0> d          -1.576   0.854   2.009  0.00  0.00     0.008 A 
ATOM      6  H5  <0> d           0.002   3.655   1.434  0.00  0.00     0.118 H 
ATOM      7  H6  <0> d          -1.877  -0.169   1.837  0.00  0.00     0.115 H 
ENDROOT
BRANCH   1   8
ATOM      8  C2  <0> d          -0.013   1.086   0.008  0.00  0.00     0.060 C 
ATOM      9  H1  <0> d           0.065  -0.011   0.015  0.00  0.00     0.090 H 
BRANCH   8  10
ATOM     10  C1  <0> d          -0.753   1.593  -1.232  0.00  0.00    -0.049 C 
ATOM     11  H2  <0> d          -0.238   1.238  -2.136  0.00  0.00     0.031 H 
ATOM     12  H3  <0> d          -0.768   2.693  -1.225  0.00  0.00     0.031 H 
ATOM     13  H4  <0> d          -1.785   1.212  -1.224  0.00  0.00     0.031 H 
ENDBRANCH   8  10
BRANCH   8  14
ATOM     14  O1  <0> d           1.328   1.580  -0.002  0.00  0.00    -0.391 OA
ATOM     15  H10 <0> d           2.017   1.319   0.815  0.00  0.00     0.210 HD
ENDBRANCH   8  14
ENDBRANCH   1   8
BRANCH   4  16
ATOM     16  C6  <0> d          -2.919   1.265   4.088  0.00  0.00     0.002 C 
ATOM     17  H7  <0> d          -3.239   0.223   3.941  0.00  0.00     0.059 H 
ATOM     18  H8  <0> d          -3.797   1.926   4.058  0.00  0.00     0.059 H 
ATOM     19  H9  <0> d          -2.420   1.361   5.064  0.00  0.00     0.059 H 
ENDBRANCH   4  16
TORSDOF 4
