REMARK  3 active torsions:
REMARK  status: ('A' for Active; 'I' for Inactive)
REMARK    1  A    between atoms: C1_1  and  C2_2 
REMARK    2  A    between atoms: C4_4  and  N1_10 
REMARK    3  A    between atoms: C7_7  and  C8_8 
ROOT
ATOM      1  C2  <0> d          -3.644   1.642   0.019  0.00  0.00    -0.043 A 
ATOM      2  C3  <0> d          -2.479   0.959  -0.247  0.00  0.00    -0.051 A 
ATOM      3  C4  <0> d          -1.261   1.633  -0.239  0.00  0.00     0.026 A 
ATOM      4  C5  <0> d          -1.217   2.996   0.043  0.00  0.00    -0.057 A 
ATOM      5  C6  <0> d          -2.370   3.681   0.302  0.00  0.00    -0.064 A 
ATOM      6  C7  <0> d          -3.599   3.012   0.297  0.00  0.00     0.046 A 
ATOM      7  H4  <0> d          -2.510  -0.099  -0.461  0.00  0.00     0.087 H 
ATOM      8  H5  <0> d          -0.270   3.514   0.052  0.00  0.00     0.086 H 
ATOM      9  H6  <0> d          -2.333   4.739   0.516  0.00  0.00     0.085 H 
ENDROOT
BRANCH   1  10
ATOM     10  C1  <0> d          -4.964   0.916   0.011  0.00  0.00    -0.050 C 
ATOM     11  H1  <0> d          -5.231   0.636   1.031  0.00  0.00     0.033 H 
ATOM     12  H2  <0> d          -5.735   1.567  -0.400  0.00  0.00     0.033 H 
ATOM     13  H3  <0> d          -4.882   0.018  -0.602  0.00  0.00     0.033 H 
ENDBRANCH   1  10
BRANCH   6  14
ATOM     14  C8  <0> d          -4.842   3.749   0.582  0.00  0.00     0.209 C 
ATOM     15  O1  <0> d          -5.894   3.149   0.689  0.00  0.00    -0.644 OA
ATOM     16  O2  <0> d          -4.814   5.089   0.724  0.00  0.00    -0.644 OA
ENDBRANCH   6  14
BRANCH   3  17
ATOM     17  N1  <0> d          -0.084   0.943  -0.508  0.00  0.00    -0.399 N 
ATOM     18  H7  <0> d          -0.113  -0.007  -0.701  0.00  0.00     0.156 HD
ATOM     19  H8  <0> d           0.764   1.412  -0.507  0.00  0.00     0.156 HD
ENDBRANCH   3  17
TORSDOF 3
