REMARK  2 active torsions:
REMARK  status: ('A' for Active; 'I' for Inactive)
REMARK    1  A    between atoms: C1_1  and  C2_2 
REMARK    2  A    between atoms: C2_2  and  C3_3 
ROOT
ATOM      1  C2  <0> d           0.002  -0.004   0.002  0.00  0.00     0.335 C 
ATOM      2  F4  <0> d          -1.310  -0.488   0.012  0.00  0.00    -0.197 F 
ATOM      3  F5  <0> d           0.657  -0.455  -1.149  0.00  0.00    -0.197 F 
ENDROOT
BRANCH   1   4
ATOM      4  C1  <0> d          -0.019   1.526   0.010  0.00  0.00    -0.008 C 
ATOM      5  H1  <0> d           1.004   1.903   0.003  0.00  0.00     0.036 H 
ATOM      6  H2  <0> d          -0.546   1.887  -0.873  0.00  0.00     0.036 H 
ATOM      7  H3  <0> d          -0.529   1.877   0.907  0.00  0.00     0.036 H 
ENDBRANCH   1   4
BRANCH   1   8
ATOM      8  C3  <0> d           0.742  -0.511   1.242  0.00  0.00     0.453 C 
ATOM      9  F1  <0> d           0.087  -0.060   2.393  0.00  0.00    -0.165 F 
ATOM     10  F2  <0> d           0.761  -1.910   1.234  0.00  0.00    -0.165 F 
ATOM     11  F3  <0> d           2.055  -0.027   1.232  0.00  0.00    -0.165 F 
ENDBRANCH   1   8
TORSDOF 2
