REMARK  4 active torsions:
REMARK  status: ('A' for Active; 'I' for Inactive)
REMARK    1  A    between atoms: C1_1  and  C2_2 
REMARK    2  A    between atoms: C2_2  and  C3_3 
REMARK    3  A    between atoms: C4_4  and  C8_10 
REMARK    4  A    between atoms: C5_6  and  C7_9 
ROOT
ATOM      1  C3  <0> d          -0.749   3.086   1.275  0.00  0.00     0.058 A 
ATOM      2  C4  <0> d           0.282   3.789   1.873  0.00  0.00     0.055 A 
ATOM      3  N1  <0> d           0.267   5.110   1.876  0.00  0.00    -0.255 NA
ATOM      4  C5  <0> d          -0.739   5.760   1.317  0.00  0.00     0.048 A 
ATOM      5  C6  <0> d          -1.773   5.058   0.724  0.00  0.00     0.026 A 
ATOM      6  N2  <0> d          -1.754   3.736   0.716  0.00  0.00    -0.262 NA
ATOM      7  H6  <0> d          -2.594   5.589   0.267  0.00  0.00     0.117 H 
ENDROOT
BRANCH   1   8
ATOM      8  C2  <0> d          -0.729   1.579   1.267  0.00  0.00    -0.026 C 
ATOM      9  H4  <0> d          -1.751   1.202   1.275  0.00  0.00     0.041 H 
ATOM     10  H5  <0> d          -0.202   1.218   2.150  0.00  0.00     0.041 H 
BRANCH   8  11
ATOM     11  C1  <0> d          -0.013   1.086   0.008  0.00  0.00    -0.071 C 
ATOM     12  H1  <0> d           0.002  -0.004   0.002  0.00  0.00     0.028 H 
ATOM     13  H2  <0> d           1.010   1.463   0.000  0.00  0.00     0.028 H 
ATOM     14  H3  <0> d          -0.540   1.447  -0.875  0.00  0.00     0.028 H 
ENDBRANCH   8  11
ENDBRANCH   1   8
BRANCH   2  15
ATOM     15  C8  <0> d           1.426   3.047   2.516  0.00  0.00    -0.034 C 
ATOM     16  H10 <0> d           2.211   2.881   1.778  0.00  0.00     0.035 H 
ATOM     17  H11 <0> d           1.823   3.637   3.342  0.00  0.00     0.035 H 
ATOM     18  H12 <0> d           1.071   2.088   2.892  0.00  0.00     0.035 H 
ENDBRANCH   2  15
BRANCH   4  19
ATOM     19  C7  <0> d          -0.760   7.267   1.325  0.00  0.00    -0.034 C 
ATOM     20  H7  <0> d          -1.270   7.618   2.222  0.00  0.00     0.035 H 
ATOM     21  H8  <0> d           0.263   7.644   1.318  0.00  0.00     0.035 H 
ATOM     22  H9  <0> d          -1.287   7.628   0.443  0.00  0.00     0.035 H 
ENDBRANCH   4  19
TORSDOF 4
