REMARK  4 active torsions:
REMARK  status: ('A' for Active; 'I' for Inactive)
REMARK    1  A    between atoms: C1_1  and  C2_2 
REMARK    2  A    between atoms: C4_5  and  C8_12 
REMARK    3  A    between atoms: C4_5  and  C9_13 
REMARK    4  A    between atoms: C5_7  and  C6_10 
ROOT
ATOM      1  C2  <0> d           0.839   3.498   1.538  0.00  0.00     0.041 C 
ATOM      2  H1  <0> d           0.953   4.566   1.726  0.00  0.00     0.083 H 
ATOM      3  C3  <0> d          -0.642   3.171   1.320  0.00  0.00    -0.013 C 
ATOM      4  C4  <0> d          -0.801   1.651   1.198  0.00  0.00     0.059 C 
ATOM      5  O1  <0> d          -0.218   1.030   2.348  0.00  0.00    -0.348 OA
ATOM      6  C5  <0> d           1.164   1.344   2.535  0.00  0.00     0.149 C 
ATOM      7  H2  <0> d           1.735   0.995   1.675  0.00  0.00     0.136 H 
ATOM      8  O2  <0> d           1.317   2.760   2.666  0.00  0.00    -0.353 OA
ATOM      9  H6  <0> d          -0.991   3.649   0.405  0.00  0.00     0.041 H 
ATOM     10  H7  <0> d          -1.225   3.532   2.168  0.00  0.00     0.041 H 
ENDROOT
BRANCH   4  11
ATOM     11  C8  <0> d          -0.088   1.162  -0.064  0.00  0.00    -0.048 C 
ATOM     12  H11 <0> d          -0.562   0.245  -0.417  0.00  0.00     0.031 H 
ATOM     13  H12 <0> d           0.960   0.965   0.163  0.00  0.00     0.031 H 
ATOM     14  H13 <0> d          -0.155   1.926  -0.839  0.00  0.00     0.031 H 
ENDBRANCH   4  11
BRANCH   4  15
ATOM     15  C9  <0> d          -2.286   1.294   1.119  0.00  0.00    -0.048 C 
ATOM     16  H14 <0> d          -2.396   0.212   1.038  0.00  0.00     0.031 H 
ATOM     17  H15 <0> d          -2.792   1.643   2.019  0.00  0.00     0.031 H 
ATOM     18  H16 <0> d          -2.729   1.771   0.245  0.00  0.00     0.031 H 
ENDBRANCH   4  15
BRANCH   1  19
ATOM     19  C1  <0> d           1.639   3.107   0.293  0.00  0.00    -0.052 C 
ATOM     20  H3  <0> d           1.937   2.062   0.367  0.00  0.00     0.030 H 
ATOM     21  H4  <0> d           1.021   3.247  -0.594  0.00  0.00     0.030 H 
ATOM     22  H5  <0> d           2.527   3.735   0.220  0.00  0.00     0.030 H 
ENDBRANCH   1  19
BRANCH   6  23
ATOM     23  C6  <0> d           1.668   0.667   3.783  0.00  0.00    -0.060 C 
ATOM     24  C7  <0> d           2.653  -0.194   3.709  0.00  0.00    -0.120 C 
ATOM     25  H9  <0> d           3.015  -0.679   4.603  0.00  0.00     0.066 H 
ATOM     26  H10 <0> d           3.103  -0.417   2.753  0.00  0.00     0.066 H 
ATOM     27  H8  <0> d           1.218   0.891   4.739  0.00  0.00     0.083 H 
ENDBRANCH   6  23
TORSDOF 4
