REMARK  4 active torsions:
REMARK  status: ('A' for Active; 'I' for Inactive)
REMARK    1  A    between atoms: C1_1  and  C2_2 
REMARK    2  A    between atoms: C2_2  and  O1_3 
REMARK    3  A    between atoms: O1_3  and  C3_4 
REMARK    4  A    between atoms: C3_4  and  C4_6 
ROOT
ATOM      1  C3  <0> d          -1.497  -1.837   0.006  0.00  0.00     0.337 C 
ATOM      2  O2  <0> d          -0.523  -2.564  -0.007  0.00  0.00    -0.255 OA
ENDROOT
BRANCH   1   3
ATOM      3  O1  <0> d          -1.339  -0.499   0.012  0.00  0.00    -0.315 OA
BRANCH   3   4
ATOM      4  C2  <0> d           0.002  -0.004   0.002  0.00  0.00     0.026 C 
ATOM      5  H4  <0> d           0.512  -0.356  -0.895  0.00  0.00     0.074 H 
ATOM      6  H5  <0> d           0.529  -0.365   0.885  0.00  0.00     0.074 H 
BRANCH   4   7
ATOM      7  C1  <0> d          -0.019   1.526   0.010  0.00  0.00    -0.056 C 
ATOM      8  H1  <0> d           1.004   1.903   0.003  0.00  0.00     0.030 H 
ATOM      9  H2  <0> d          -0.546   1.887  -0.873  0.00  0.00     0.030 H 
ATOM     10  H3  <0> d          -0.529   1.877   0.907  0.00  0.00     0.030 H 
ENDBRANCH   4   7
ENDBRANCH   3   4
ENDBRANCH   1   3
BRANCH   1  11
ATOM     11  C4  <0> d          -2.850  -2.419   0.016  0.00  0.00     0.246 A 
ATOM     12  O3  <0> d          -3.141  -3.733   0.012  0.00  0.00    -0.298 OA
ATOM     13  C6  <0> d          -4.478  -3.854   0.027  0.00  0.00     0.038 A 
ATOM     14  C5  <0> d          -4.994  -2.604   0.032  0.00  0.00     0.027 A 
ATOM     15  H7  <0> d          -5.037  -4.778   0.031  0.00  0.00     0.125 H 
ATOM     16  N1  <0> d          -3.976  -1.742   0.025  0.00  0.00    -0.230 NA
ATOM     17  H6  <0> d          -6.043  -2.348   0.040  0.00  0.00     0.117 H 
ENDBRANCH   1  11
TORSDOF 4
