REMARK  4 active torsions:
REMARK  status: ('A' for Active; 'I' for Inactive)
REMARK    1  A    between atoms: C1_1  and  C2_2 
REMARK    2  A    between atoms: C6_6  and  O2_9 
REMARK    3  A    between atoms: C7_7  and  O1_8 
REMARK    4  A    between atoms: O2_9  and  C8_10 
ROOT
ATOM      1  C2  <0> d           1.863   1.823   1.193  0.00  0.00    -0.026 A 
ATOM      2  C3  <0> d           3.121   2.396   1.182  0.00  0.00    -0.074 A 
ATOM      3  C4  <0> d           3.738   2.693  -0.018  0.00  0.00    -0.080 A 
ATOM      4  C5  <0> d           3.103   2.412  -1.214  0.00  0.00    -0.048 A 
ATOM      5  C6  <0> d           1.845   1.832  -1.210  0.00  0.00     0.101 A 
ATOM      6  C7  <0> d           1.224   1.533  -0.001  0.00  0.00     0.104 A 
ATOM      7  H4  <0> d           3.620   2.617   2.114  0.00  0.00     0.084 H 
ATOM      8  H5  <0> d           4.719   3.146  -0.022  0.00  0.00     0.083 H 
ATOM      9  H6  <0> d           3.588   2.645  -2.151  0.00  0.00     0.087 H 
ENDROOT
BRANCH   5  10
ATOM     10  O2  <0> d           1.220   1.554  -2.385  0.00  0.00    -0.353 OA
BRANCH  10  11
ATOM     11  C8  <0> d           1.918   1.888  -3.587  0.00  0.00     0.010 C 
ATOM     12  H8  <0> d           1.309   1.615  -4.449  0.00  0.00     0.066 H 
ATOM     13  H9  <0> d           2.115   2.960  -3.606  0.00  0.00     0.066 H 
ATOM     14  H10 <0> d           2.861   1.344  -3.622  0.00  0.00     0.066 H 
ENDBRANCH  10  11
ENDBRANCH   5  10
BRANCH   6  15
ATOM     15  O1  <0> d          -0.011   0.963   0.007  0.00  0.00    -0.357 OA
ATOM     16  H7  <0> d           0.002  -0.004   0.002  0.00  0.00     0.217 HD
ENDBRANCH   6  15
BRANCH   1  17
ATOM     17  C1  <0> d           1.190   1.507   2.504  0.00  0.00    -0.049 C 
ATOM     18  H1  <0> d           1.458   0.497   2.816  0.00  0.00     0.033 H 
ATOM     19  H2  <0> d           1.516   2.220   3.261  0.00  0.00     0.033 H 
ATOM     20  H3  <0> d           0.109   1.574   2.383  0.00  0.00     0.033 H 
ENDBRANCH   1  17
TORSDOF 4
