REMARK  3 active torsions:
REMARK  status: ('A' for Active; 'I' for Inactive)
REMARK    1  A    between atoms: C1_1  and  C2_2 
REMARK    2  A    between atoms: C2_2  and  C3_4 
REMARK    3  A    between atoms: C8_9  and  O2_10 
ROOT
ATOM      1  C3  <0> d          -1.259  -0.755   0.010  0.00  0.00     0.042 A 
ATOM      2  C4  <0> d          -2.484  -0.076   0.019  0.00  0.00    -0.067 A 
ATOM      3  C5  <0> d          -3.662  -0.788   0.026  0.00  0.00    -0.082 A 
ATOM      4  C6  <0> d          -3.643  -2.174   0.025  0.00  0.00    -0.080 A 
ATOM      5  C7  <0> d          -2.444  -2.858   0.016  0.00  0.00    -0.050 A 
ATOM      6  C8  <0> d          -1.245  -2.160   0.002  0.00  0.00     0.079 A 
ATOM      7  H4  <0> d          -2.504   1.003   0.022  0.00  0.00     0.085 H 
ATOM      8  H5  <0> d          -4.606  -0.264   0.034  0.00  0.00     0.083 H 
ATOM      9  H6  <0> d          -4.573  -2.723   0.031  0.00  0.00     0.083 H 
ATOM     10  H7  <0> d          -2.439  -3.938   0.015  0.00  0.00     0.087 H 
ENDROOT
BRANCH   1  11
ATOM     11  C2  <0> d           0.002  -0.004   0.002  0.00  0.00     0.158 C 
ATOM     12  O1  <0> d           1.061  -0.596  -0.011  0.00  0.00    -0.293 OA
BRANCH  11  13
ATOM     13  C1  <0> d          -0.018   1.503   0.010  0.00  0.00    -0.017 C 
ATOM     14  H1  <0> d           1.004   1.880   0.003  0.00  0.00     0.038 H 
ATOM     15  H2  <0> d          -0.545   1.864  -0.873  0.00  0.00     0.038 H 
ATOM     16  H3  <0> d          -0.529   1.854   0.907  0.00  0.00     0.038 H 
ENDBRANCH  11  13
ENDBRANCH   1  11
BRANCH   6  17
ATOM     17  O2  <0> d          -0.067  -2.830  -0.012  0.00  0.00    -0.360 OA
ATOM     18  H8  <0> d           0.284  -3.029   0.867  0.00  0.00     0.217 HD
ENDBRANCH   6  17
TORSDOF 3
