REMARK  7 active torsions:
REMARK  status: ('A' for Active; 'I' for Inactive)
REMARK    1  A    between atoms: C1_1  and  C2_2 
REMARK    2  A    between atoms: C2_2  and  C3_3 
REMARK    3  A    between atoms: C2_2  and  C4_4 
REMARK    4  A    between atoms: C2_2  and  C5_5 
REMARK    5  A    between atoms: C6_6  and  C7_7 
REMARK    6  A    between atoms: C7_7  and  C8_9 
REMARK    7  A    between atoms: C7_7  and  O1_11 
ROOT
ATOM      1  C2  <0> d          -1.940   2.414   3.396  0.00  0.00     0.013 C 
ENDROOT
BRANCH   1   2
ATOM      2  C1  <0> d          -1.961   3.944   3.405  0.00  0.00    -0.059 C 
ATOM      3  H2  <0> d          -2.488   4.305   2.521  0.00  0.00     0.029 H 
ATOM      4  H3  <0> d          -2.471   4.295   4.301  0.00  0.00     0.029 H 
ATOM      5  H4  <0> d          -0.938   4.321   3.397  0.00  0.00     0.029 H 
ENDBRANCH   1   2
BRANCH   1   6
ATOM      6  C3  <0> d          -3.376   1.884   3.407  0.00  0.00    -0.059 C 
ATOM      7  H5  <0> d          -3.361   0.794   3.401  0.00  0.00     0.029 H 
ATOM      8  H6  <0> d          -3.886   2.236   4.304  0.00  0.00     0.029 H 
ATOM      9  H7  <0> d          -3.903   2.245   2.524  0.00  0.00     0.029 H 
ENDBRANCH   1   6
BRANCH   1  10
ATOM     10  C4  <0> d          -1.200   1.907   4.636  0.00  0.00    -0.059 C 
ATOM     11  H8  <0> d          -0.178   2.284   4.628  0.00  0.00     0.029 H 
ATOM     12  H9  <0> d          -1.710   2.259   5.532  0.00  0.00     0.029 H 
ATOM     13  H10 <0> d          -1.185   0.817   4.630  0.00  0.00     0.029 H 
ENDBRANCH   1  10
BRANCH   1  14
ATOM     14  C5  <0> d          -1.251   1.939   2.185  0.00  0.00    -0.095 C 
ATOM     15  C6  <0> d          -0.702   1.560   1.219  0.00  0.00    -0.070 C 
BRANCH  15  16
ATOM     16  C7  <0> d          -0.013   1.086   0.008  0.00  0.00     0.110 C 
ATOM     17  H1  <0> d           0.002  -0.004   0.002  0.00  0.00     0.109 H 
BRANCH  16  18
ATOM     18  C8  <0> d           1.401   1.607  -0.003  0.00  0.00    -0.074 C 
ATOM     19  C9  <0> d           2.408   0.770  -0.017  0.00  0.00    -0.122 C 
ATOM     20  H12 <0> d           3.421   1.144  -0.025  0.00  0.00     0.066 H 
ATOM     21  H13 <0> d           2.225  -0.295  -0.021  0.00  0.00     0.066 H 
ATOM     22  H11 <0> d           1.584   2.672   0.001  0.00  0.00     0.081 H 
ENDBRANCH  16  18
BRANCH  16  23
ATOM     23  O1  <0> d          -0.704   1.559  -1.150  0.00  0.00    -0.380 OA
ATOM     24  H14 <0> d          -0.756   2.523  -1.210  0.00  0.00     0.211 HD
ENDBRANCH  16  23
ENDBRANCH  15  16
ENDBRANCH   1  14
TORSDOF 7
