REMARK  2 active torsions:
REMARK  status: ('A' for Active; 'I' for Inactive)
REMARK    1  A    between atoms: C1_1  and  C2_2 
REMARK    2  A    between atoms: N1_6  and  C6_9 
ROOT
ATOM      1  C2  <0> d          -0.013   1.086   0.008  0.00  0.00     0.022 C 
ATOM      2  H1  <0> d           0.002  -0.004   0.002  0.00  0.00     0.054 H 
ATOM      3  C3  <0> d           1.428   1.647  -0.003  0.00  0.00    -0.039 C 
ATOM      4  C4  <0> d           1.670   1.864  -1.513  0.00  0.00    -0.002 C 
ATOM      5  N1  <0> d           0.338   2.048  -2.100  0.00  0.00    -0.356 N 
ATOM      6  C5  <0> d          -0.626   1.614  -1.270  0.00  0.00     0.223 C 
ATOM      7  O1  <0> d          -1.814   1.641  -1.511  0.00  0.00    -0.273 OA
ATOM      8  H5  <0> d           1.484   2.590   0.541  0.00  0.00     0.036 H 
ATOM      9  H6  <0> d           2.132   0.921   0.405  0.00  0.00     0.036 H 
ATOM     10  H7  <0> d           2.279   2.754  -1.673  0.00  0.00     0.064 H 
ATOM     11  H8  <0> d           2.157   0.991  -1.947  0.00  0.00     0.064 H 
ENDROOT
BRANCH   1  12
ATOM     12  C1  <0> d          -0.779   1.603   1.227  0.00  0.00    -0.065 C 
ATOM     13  H2  <0> d          -0.795   2.693   1.211  0.00  0.00     0.028 H 
ATOM     14  H3  <0> d          -1.801   1.224   1.201  0.00  0.00     0.028 H 
ATOM     15  H4  <0> d          -0.288   1.260   2.137  0.00  0.00     0.028 H 
ENDBRANCH   1  12
BRANCH   5  16
ATOM     16  C6  <0> d           0.090   2.629  -3.422  0.00  0.00    -0.016 C 
ATOM     17  H9  <0> d           0.086   1.838  -4.172  0.00  0.00     0.056 H 
ATOM     18  H10 <0> d          -0.875   3.135  -3.422  0.00  0.00     0.056 H 
ATOM     19  H11 <0> d           0.876   3.348  -3.656  0.00  0.00     0.056 H 
ENDBRANCH   5  16
TORSDOF 2
