REMARK  1 active torsions:
REMARK  status: ('A' for Active; 'I' for Inactive)
REMARK    1  A    between atoms: C4_8  and  C5_9 
ROOT
ATOM      1  C1  <0> d           2.457   3.740  -0.001  0.00  0.00    -0.042 A 
ATOM      2  C2  <0> d           2.430   5.140   0.006  0.00  0.00     0.023 A 
ATOM      3  N1  <0> d           1.295   5.783   0.020  0.00  0.00    -0.184 NA
ATOM      4  N2  <0> d           0.157   5.191   0.028  0.00  0.00    -0.243 N 
ATOM      5  H1  <0> d          -0.771   5.783   0.044  0.00  0.00     0.192 HD
ATOM      6  C3  <0> d           0.052   3.849   0.016  0.00  0.00     0.278 A 
ATOM      7  O1  <0> d          -1.044   3.314   0.019  0.00  0.00    -0.266 OA
ATOM      8  C4  <0> d           1.238   3.063   0.007  0.00  0.00     0.111 A 
ATOM      9  H2  <0> d           3.393   3.201  -0.012  0.00  0.00     0.087 H 
ATOM     10  H3  <0> d           3.358   5.693   0.000  0.00  0.00     0.117 H 
ENDROOT
BRANCH   8  11
ATOM     11  C5  <0> d           1.181   1.591  -0.001  0.00  0.00     0.215 C 
ATOM     12  O2  <0> d           2.209   0.943  -0.014  0.00  0.00    -0.644 OA
ATOM     13  O3  <0> d          -0.011   0.963   0.007  0.00  0.00    -0.644 OA
ENDBRANCH   8  11
TORSDOF 1
