REMARK  4 active torsions:
REMARK  status: ('A' for Active; 'I' for Inactive)
REMARK    1  A    between atoms: C1_1  and  C2_2 
REMARK    2  A    between atoms: C2_2  and  N1_3 
REMARK       I    between atoms: N1_3  and  C3_4 
REMARK    3  A    between atoms: C3_4  and  C4_6 
REMARK    4  A    between atoms: C6_9  and  C7_11 
ROOT
ATOM      1  N1  <0> d          -1.081   3.558   0.027  0.00  0.00    -0.356 N 
ATOM      2  C3  <0> d          -1.214   2.216   0.020  0.00  0.00     0.272 C 
ATOM      3  O1  <0> d          -2.322   1.715   0.023  0.00  0.00    -0.266 OA
ATOM      4  H6  <0> d          -0.079   4.011   0.024  0.00  0.00     0.162 HD
ENDROOT
BRANCH   2   5
ATOM      5  C4  <0> d          -0.016   1.357   0.009  0.00  0.00     0.149 A 
ATOM      6  N2  <0> d           1.278   1.774  -0.001  0.00  0.00    -0.222 NA
ATOM      7  C6  <0> d           2.049   0.728  -0.014  0.00  0.00     0.141 A 
ATOM      8  O2  <0> d           1.291  -0.378  -0.012  0.00  0.00    -0.306 OA
ATOM      9  C5  <0> d           0.002  -0.004   0.002  0.00  0.00     0.054 A 
ATOM     10  H7  <0> d          -0.857  -0.659   0.007  0.00  0.00     0.127 H 
BRANCH   7  11
ATOM     11  C7  <0> d           3.555   0.754  -0.029  0.00  0.00    -0.015 C 
ATOM     12  H8  <0> d           3.904   1.797  -0.026  0.00  0.00     0.038 H 
ATOM     13  H9  <0> d           3.922   0.247  -0.933  0.00  0.00     0.038 H 
ATOM     14  H10 <0> d           3.940   0.237   0.863  0.00  0.00     0.038 H 
ENDBRANCH   7  11
ENDBRANCH   2   5
BRANCH   1  15
ATOM     15  C2  <0> d          -2.271   4.412   0.037  0.00  0.00    -0.008 C 
ATOM     16  H4  <0> d          -2.867   4.199   0.937  0.00  0.00     0.063 H 
ATOM     17  H5  <0> d          -2.876   4.209  -0.859  0.00  0.00     0.063 H 
BRANCH  15  18
ATOM     18  C1  <0> d          -1.844   5.881   0.043  0.00  0.00    -0.061 C 
ATOM     19  H1  <0> d          -2.738   6.522   0.051  0.00  0.00     0.029 H 
ATOM     20  H2  <0> d          -1.248   6.093  -0.857  0.00  0.00     0.029 H 
ATOM     21  H3  <0> d          -1.239   6.083   0.940  0.00  0.00     0.029 H 
ENDBRANCH  15  18
ENDBRANCH   1  15
TORSDOF 4
