REMARK  2 active torsions:
REMARK  status: ('A' for Active; 'I' for Inactive)
REMARK    1  A    between atoms: C1_1  and  C2_2 
REMARK    2  A    between atoms: C4_5  and  C5_7 
ROOT
ATOM      1  C2  <0> d           1.265  -2.744  -1.200  0.00  0.00    -0.048 A 
ATOM      2  H1  <0> d           1.957  -3.506  -1.557  0.00  0.00     0.040 H 
ATOM      3  C3  <0> d           0.644  -2.946   0.184  0.00  0.00    -0.052 A 
ATOM      4  C4  <0> d           1.717  -1.875  -0.024  0.00  0.00    -0.004 A 
ATOM      5  H2  <0> d           2.706  -2.066   0.392  0.00  0.00     0.051 H 
ATOM      6  H6  <0> d           0.927  -3.841   0.737  0.00  0.00     0.034 H 
ATOM      7  H7  <0> d          -0.382  -2.608   0.329  0.00  0.00     0.034 H 
ENDROOT
BRANCH   4   8
ATOM      8  C5  <0> d           1.274  -0.435  -0.012  0.00  0.00     0.057 A 
ATOM      9  O1  <0> d           0.002  -0.004   0.002  0.00  0.00    -0.327 OA
ATOM     10  C8  <0> d          -0.016   1.339   0.009  0.00  0.00     0.019 A 
ATOM     11  C7  <0> d           1.254   1.781  -0.000  0.00  0.00    -0.059 A 
ATOM     12  H10 <0> d          -0.901   1.958   0.017  0.00  0.00     0.123 H 
ATOM     13  C6  <0> d           2.086   0.638  -0.014  0.00  0.00    -0.052 A 
ATOM     14  H9  <0> d           1.577   2.812   0.002  0.00  0.00     0.086 H 
ATOM     15  H8  <0> d           3.166   0.628  -0.024  0.00  0.00     0.087 H 
ENDBRANCH   4   8
BRANCH   1  16
ATOM     16  C1  <0> d           0.399  -2.083  -2.274  0.00  0.00    -0.072 C 
ATOM     17  H3  <0> d           0.945  -1.254  -2.722  0.00  0.00     0.028 H 
ATOM     18  H4  <0> d           0.154  -2.815  -3.044  0.00  0.00     0.028 H 
ATOM     19  H5  <0> d          -0.520  -1.711  -1.821  0.00  0.00     0.028 H 
ENDBRANCH   1  16
TORSDOF 2
