REMARK  3 active torsions:
REMARK  status: ('A' for Active; 'I' for Inactive)
REMARK    1  A    between atoms: C1_1  and  C2_2 
REMARK    2  A    between atoms: C3_3  and  C5_8 
REMARK    3  A    between atoms: C5_8  and  C6_10 
ROOT
ATOM      1  C2  <0> d           2.134   0.722  -0.014  0.00  0.00     0.039 A 
ATOM      2  C3  <0> d           1.354  -0.423  -0.013  0.00  0.00     0.052 A 
ATOM      3  C4  <0> d           0.002  -0.004   0.002  0.00  0.00     0.037 A 
ATOM      4  N1  <0> d          -0.016   1.300   0.009  0.00  0.00    -0.186 NA
ATOM      5  N2  <0> d           1.301   1.773  -0.001  0.00  0.00    -0.282 N 
ATOM      6  H1  <0> d           1.575   2.735   0.002  0.00  0.00     0.189 HD
ATOM      7  H5  <0> d          -0.863  -0.651   0.007  0.00  0.00     0.118 H 
ENDROOT
BRANCH   2   8
ATOM      8  C5  <0> d           1.838  -1.807  -0.026  0.00  0.00     0.159 C 
ATOM      9  O1  <0> d           3.030  -2.033  -0.039  0.00  0.00    -0.293 OA
BRANCH   8  10
ATOM     10  C6  <0> d           0.855  -2.949  -0.023  0.00  0.00    -0.016 C 
ATOM     11  H6  <0> d           0.628  -3.196  -0.965  0.00  0.00     0.038 H 
ATOM     12  H7  <0> d           1.297  -3.808   0.482  0.00  0.00     0.038 H 
ATOM     13  H8  <0> d          -0.051  -2.647   0.501  0.00  0.00     0.038 H 
ENDBRANCH   8  10
ENDBRANCH   2   8
BRANCH   1  14
ATOM     14  C1  <0> d           3.639   0.776  -0.029  0.00  0.00    -0.035 C 
ATOM     15  H2  <0> d           3.993   0.794  -1.060  0.00  0.00     0.035 H 
ATOM     16  H3  <0> d           3.975   1.676   0.487  0.00  0.00     0.035 H 
ATOM     17  H4  <0> d           4.039  -0.103   0.477  0.00  0.00     0.035 H 
ENDBRANCH   1  14
TORSDOF 3
