REMARK  1 active torsions:
REMARK  status: ('A' for Active; 'I' for Inactive)
REMARK    1  A    between atoms: C6_6  and  O1_7 
ROOT
ATOM      1  C1  <0> d          -0.017   1.383   0.010  0.00  0.00    -0.050 A 
ATOM      2  C2  <0> d           1.175   2.085   0.002  0.00  0.00    -0.071 A 
ATOM      3  C3  <0> d           2.374   1.408  -0.012  0.00  0.00    -0.023 A 
ATOM      4  C4  <0> d           2.409   0.018  -0.012  0.00  0.00     0.077 A 
ATOM      5  C5  <0> d           1.208  -0.685  -0.009  0.00  0.00    -0.018 A 
ATOM      6  C6  <0> d           0.002  -0.004   0.002  0.00  0.00     0.068 A 
ATOM      7  O2  <0> d           3.689  -0.443  -0.004  0.00  0.00    -0.350 OA
ATOM      8  C7  <0> d           4.572   0.603  -0.445  0.00  0.00     0.030 C 
ATOM      9  C8  <0> d           3.813   1.887  -0.035  0.00  0.00    -0.018 C 
ATOM     10  H1  <0> d          -0.958   1.913   0.026  0.00  0.00     0.087 H 
ATOM     11  H2  <0> d           1.165   3.165   0.007  0.00  0.00     0.084 H 
ATOM     12  H3  <0> d           1.216  -1.765  -0.016  0.00  0.00     0.092 H 
ATOM     13  H5  <0> d           5.531   0.541   0.069  0.00  0.00     0.075 H 
ATOM     14  H6  <0> d           4.708   0.564  -1.526  0.00  0.00     0.075 H 
ATOM     15  H7  <0> d           3.950   2.674  -0.776  0.00  0.00     0.043 H 
ATOM     16  H8  <0> d           4.126   2.226   0.953  0.00  0.00     0.043 H 
ENDROOT
BRANCH   6  17
ATOM     17  O1  <0> d          -1.167  -0.697   0.005  0.00  0.00    -0.361 OA
ATOM     18  H4  <0> d          -1.511  -0.893  -0.877  0.00  0.00     0.217 HD
ENDBRANCH   6  17
TORSDOF 1
