REMARK  1 active torsions:
REMARK  status: ('A' for Active; 'I' for Inactive)
REMARK    1  A    between atoms: C3_3  and  C4_4 
ROOT
ATOM      1  C1  <0> d          -0.019   1.526   0.010  0.00  0.00    -0.054 A 
ATOM      2  C2  <0> d           1.317   0.779  -0.006  0.00  0.00    -0.054 A 
ATOM      3  C3  <0> d           0.002  -0.004   0.002  0.00  0.00     0.012 A 
ATOM      4  H1  <0> d          -0.307   2.020   0.938  0.00  0.00     0.034 H 
ATOM      5  H2  <0> d          -0.325   2.030  -0.906  0.00  0.00     0.034 H 
ATOM      6  H3  <0> d           1.889   0.792  -0.934  0.00  0.00     0.034 H 
ATOM      7  H4  <0> d           1.906   0.782   0.910  0.00  0.00     0.034 H 
ATOM      8  H5  <0> d          -0.273  -0.516   0.924  0.00  0.00     0.052 H 
ENDROOT
BRANCH   3   9
ATOM      9  C4  <0> d          -0.402  -0.698  -1.273  0.00  0.00     0.174 A 
ATOM     10  N1  <0> d           0.409  -1.109  -2.190  0.00  0.00    -0.148 NA
ATOM     11  N2  <0> d          -0.354  -1.699  -3.208  0.00  0.00    -0.220 N 
ATOM     12  C5  <0> d          -1.647  -1.606  -2.828  0.00  0.00     0.387 A 
ATOM     13  H6  <0> d          -0.019  -2.096  -4.027  0.00  0.00     0.194 HD
ATOM     14  O1  <0> d          -1.667  -0.994  -1.633  0.00  0.00    -0.243 OA
ATOM     15  O2  <0> d          -2.613  -2.007  -3.450  0.00  0.00    -0.236 OA
ENDBRANCH   3   9
TORSDOF 1
