REMARK  1 active torsions:
REMARK  status: ('A' for Active; 'I' for Inactive)
REMARK    1  A    between atoms: C4_6  and  C5_7 
ROOT
ATOM      1  C1  <0> d           2.380   1.283  -0.014  0.00  0.00    -0.046 A 
ATOM      2  C2  <0> d           2.281  -0.099  -0.020  0.00  0.00     0.025 A 
ATOM      3  N1  <0> d           1.095  -0.675  -0.012  0.00  0.00    -0.163 NA
ATOM      4  N2  <0> d           0.002  -0.004   0.002  0.00  0.00    -0.162 NA
ATOM      5  C3  <0> d          -0.016   1.315   0.009  0.00  0.00     0.040 A 
ATOM      6  C4  <0> d           1.190   2.023   0.002  0.00  0.00     0.061 A 
ATOM      7  H1  <0> d           3.341   1.774  -0.021  0.00  0.00     0.087 H 
ATOM      8  H2  <0> d           3.176  -0.704  -0.032  0.00  0.00     0.117 H 
ATOM      9  H3  <0> d          -0.957   1.845   0.017  0.00  0.00     0.119 H 
ENDROOT
BRANCH   6  10
ATOM     10  C5  <0> d           1.208   3.503   0.009  0.00  0.00     0.210 C 
ATOM     11  O1  <0> d           2.268   4.097   0.002  0.00  0.00    -0.644 OA
ATOM     12  O2  <0> d           0.051   4.191   0.023  0.00  0.00    -0.644 OA
ENDBRANCH   6  10
TORSDOF 1
