REMARK  3 active torsions:
REMARK  status: ('A' for Active; 'I' for Inactive)
REMARK    1  A    between atoms: C1_1  and  C2_2 
REMARK    2  A    between atoms: C2_2  and  C3_4 
REMARK    3  A    between atoms: C2_2  and  O1_10 
ROOT
ATOM      1  C3  <0> d          -0.018   1.503   0.010  0.00  0.00    -0.013 A 
ATOM      2  C4  <0> d           1.168   2.221   0.003  0.00  0.00    -0.072 A 
ATOM      3  C5  <0> d           1.101   3.606   0.011  0.00  0.00    -0.065 A 
ATOM      4  C6  <0> d          -0.138   4.220   0.026  0.00  0.00     0.002 A 
ATOM      5  N1  <0> d          -1.245   3.505   0.033  0.00  0.00    -0.272 NA
ATOM      6  C7  <0> d          -1.219   2.186   0.020  0.00  0.00     0.010 A 
ATOM      7  H5  <0> d           2.121   1.714  -0.009  0.00  0.00     0.084 H 
ATOM      8  H6  <0> d           2.004   4.197   0.005  0.00  0.00     0.085 H 
ATOM      9  H7  <0> d          -0.198   5.298   0.032  0.00  0.00     0.114 H 
ATOM     10  H8  <0> d          -2.148   1.634   0.021  0.00  0.00     0.115 H 
ENDROOT
BRANCH   1  11
ATOM     11  C2  <0> d           0.002  -0.004   0.002  0.00  0.00     0.059 C 
ATOM     12  H1  <0> d           0.942  -0.357   0.425  0.00  0.00     0.090 H 
BRANCH  11  13
ATOM     13  C1  <0> d          -0.130  -0.508  -1.437  0.00  0.00    -0.049 C 
ATOM     14  H2  <0> d           0.701  -0.130  -2.032  0.00  0.00     0.031 H 
ATOM     15  H3  <0> d          -0.116  -1.598  -1.442  0.00  0.00     0.031 H 
ATOM     16  H4  <0> d          -1.071  -0.155  -1.860  0.00  0.00     0.031 H 
ENDBRANCH  11  13
BRANCH  11  17
ATOM     17  O1  <0> d          -1.088  -0.499   0.783  0.00  0.00    -0.391 OA
ATOM     18  H9  <0> d          -1.958  -0.224   0.463  0.00  0.00     0.210 HD
ENDBRANCH  11  17
ENDBRANCH   1  11
TORSDOF 3
