REMARK  2 active torsions:
REMARK  status: ('A' for Active; 'I' for Inactive)
REMARK    1  A    between atoms: C1_1  and  C2_2 
REMARK    2  A    between atoms: C2_2  and  O2_8 
ROOT
ATOM      1  C2  <0> d           0.711   3.209   0.448  0.00  0.00     0.078 C 
ATOM      2  C3  <0> d          -0.779   3.180   0.037  0.00  0.00     0.039 C 
ATOM      3  C4  <0> d          -1.131   1.709   0.016  0.00  0.00     0.220 C 
ATOM      4  O1  <0> d          -2.260   1.265   0.011  0.00  0.00    -0.274 OA
ATOM      5  N1  <0> d          -0.011   0.966   0.007  0.00  0.00    -0.358 N 
ATOM      6  C5  <0> d           1.189   1.810   0.000  0.00  0.00     0.024 C 
ATOM      7  H4  <0> d          -1.387   3.711   0.769  0.00  0.00     0.051 H 
ATOM      8  H5  <0> d          -0.910   3.616  -0.954  0.00  0.00     0.051 H 
ATOM      9  H6  <0> d           0.002  -0.004   0.002  0.00  0.00     0.162 HD
ATOM     10  H7  <0> d           1.928   1.422   0.702  0.00  0.00     0.068 H 
ATOM     11  H8  <0> d           1.610   1.859  -1.004  0.00  0.00     0.068 H 
ENDROOT
BRANCH   1  12
ATOM     12  C1  <0> d           1.465   4.311  -0.300  0.00  0.00    -0.046 C 
ATOM     13  H1  <0> d           1.290   4.208  -1.371  0.00  0.00     0.031 H 
ATOM     14  H2  <0> d           1.109   5.286   0.034  0.00  0.00     0.031 H 
ATOM     15  H3  <0> d           2.532   4.224  -0.097  0.00  0.00     0.031 H 
ENDBRANCH   1  12
BRANCH   1  16
ATOM     16  O2  <0> d           0.849   3.369   1.862  0.00  0.00    -0.388 OA
ATOM     17  H9  <0> d           0.562   4.232   2.190  0.00  0.00     0.210 HD
ENDBRANCH   1  16
TORSDOF 2
