REMARK  0 active torsions:
REMARK  status: ('A' for Active; 'I' for Inactive)
ROOT
ATOM      1  C1  <0> d          -0.017   1.370   0.010  0.00  0.00    -0.038 A 
ATOM      2  C2  <0> d           1.176   2.080   0.002  0.00  0.00     0.119 A 
ATOM      3  C3  <0> d           2.385   1.406  -0.014  0.00  0.00    -0.008 A 
ATOM      4  C4  <0> d           2.413   0.025  -0.021  0.00  0.00     0.130 A 
ATOM      5  C5  <0> d           1.214  -0.697  -0.013  0.00  0.00     0.009 A 
ATOM      6  C6  <0> d           0.002  -0.004   0.002  0.00  0.00    -0.038 A 
ATOM      7  C7  <0> d          -1.085  -1.052   0.006  0.00  0.00    -0.025 A 
ATOM      8  C8  <0> d          -0.364  -2.380  -0.008  0.00  0.00    -0.098 A 
ATOM      9  C9  <0> d           0.937  -2.145  -0.019  0.00  0.00    -0.073 A 
ATOM     10  F1  <0> d           3.596  -0.628  -0.037  0.00  0.00    -0.205 F 
ATOM     11  F2  <0> d           1.157   3.431   0.009  0.00  0.00    -0.206 F 
ATOM     12  H1  <0> d          -0.959   1.898   0.026  0.00  0.00     0.089 H 
ATOM     13  H2  <0> d           3.311   1.962  -0.020  0.00  0.00     0.093 H 
ATOM     14  H3  <0> d          -1.692  -0.962   0.907  0.00  0.00     0.046 H 
ATOM     15  H4  <0> d          -1.708  -0.952  -0.882  0.00  0.00     0.046 H 
ATOM     16  H5  <0> d          -0.831  -3.353  -0.009  0.00  0.00     0.077 H 
ATOM     17  H6  <0> d           1.696  -2.913  -0.030  0.00  0.00     0.084 H 
ENDROOT
TORSDOF 0
