REMARK  1 active torsions:
REMARK  status: ('A' for Active; 'I' for Inactive)
REMARK    1  A    between atoms: C1_1  and  C2_2 
ROOT
ATOM      1  C2  <0> d           1.170   2.091   0.002  0.00  0.00    -0.059 A 
ATOM      2  C3  <0> d          -0.017   1.373   0.010  0.00  0.00    -0.075 A 
ATOM      3  C4  <0> d           0.002  -0.004   0.002  0.00  0.00    -0.052 A 
ATOM      4  C5  <0> d           1.223  -0.680  -0.013  0.00  0.00     0.092 A 
ATOM      5  C6  <0> d           2.421   0.051  -0.021  0.00  0.00     0.106 A 
ATOM      6  C7  <0> d           2.384   1.437  -0.013  0.00  0.00    -0.042 A 
ATOM      7  O1  <0> d           3.419  -0.860  -0.035  0.00  0.00    -0.302 OA
ATOM      8  C8  <0> d           2.868  -2.084  -0.036  0.00  0.00     0.104 A 
ATOM      9  N1  <0> d           1.572  -1.995  -0.024  0.00  0.00    -0.234 NA
ATOM     10  H4  <0> d          -0.961   1.896   0.017  0.00  0.00     0.084 H 
ATOM     11  H5  <0> d          -0.924  -0.559   0.007  0.00  0.00     0.087 H 
ATOM     12  H6  <0> d           3.304   2.003  -0.019  0.00  0.00     0.088 H 
ATOM     13  H7  <0> d           3.423  -3.011  -0.047  0.00  0.00     0.155 H 
ENDROOT
BRANCH   1  14
ATOM     14  C1  <0> d           1.132   3.598   0.011  0.00  0.00    -0.051 C 
ATOM     15  H1  <0> d           1.133   3.955   1.040  0.00  0.00     0.033 H 
ATOM     16  H2  <0> d           2.008   3.986  -0.510  0.00  0.00     0.033 H 
ATOM     17  H3  <0> d           0.228   3.941  -0.493  0.00  0.00     0.033 H 
ENDBRANCH   1  14
TORSDOF 1
