REMARK  9 active torsions:
REMARK  status: ('A' for Active; 'I' for Inactive)
REMARK    1  A    between atoms: C1_1  and  C2_2 
REMARK    2  A    between atoms: C2_2  and  C3_4 
REMARK    3  A    between atoms: C2_2  and  O2_13 
REMARK    4  A    between atoms: C3_4  and  C4_5 
REMARK    5  A    between atoms: C4_5  and  C5_7 
REMARK    6  A    between atoms: C4_5  and  O1_12 
REMARK    7  A    between atoms: C5_7  and  C6_8 
REMARK    8  A    between atoms: C6_8  and  C7_9 
REMARK    9  A    between atoms: C7_9  and  C8_10 
ROOT
ATOM      1  C4  <0> d          -1.413  -2.063   0.004  0.00  0.00     0.038 C 
ATOM      2  H2  <0> d          -0.810  -2.423   0.839  0.00  0.00     0.083 H 
ENDROOT
BRANCH   1   3
ATOM      3  C3  <0> d          -2.841  -2.594   0.141  0.00  0.00    -0.018 C 
ATOM      4  H6  <0> d          -3.302  -2.170   1.033  0.00  0.00     0.040 H 
ATOM      5  H7  <0> d          -3.420  -2.308  -0.737  0.00  0.00     0.040 H 
BRANCH   3   6
ATOM      6  C2  <0> d          -2.810  -4.119   0.258  0.00  0.00     0.034 C 
ATOM      7  H1  <0> d          -2.271  -4.537  -0.592  0.00  0.00     0.082 H 
BRANCH   6   8
ATOM      8  C1  <0> d          -4.242  -4.659   0.269  0.00  0.00    -0.052 C 
ATOM      9  H3  <0> d          -4.781  -4.240   1.119  0.00  0.00     0.030 H 
ATOM     10  H4  <0> d          -4.744  -4.375  -0.656  0.00  0.00     0.030 H 
ATOM     11  H5  <0> d          -4.220  -5.745   0.352  0.00  0.00     0.030 H 
ENDBRANCH   6   8
BRANCH   6  12
ATOM     12  O2  <0> d          -2.152  -4.490   1.470  0.00  0.00    -0.396 OA
ATOM     13  H18 <0> d          -2.095  -5.446   1.611  0.00  0.00     0.210 HD
ENDBRANCH   6  12
ENDBRANCH   3   6
ENDBRANCH   1   3
BRANCH   1  14
ATOM     14  C5  <0> d          -1.433  -0.534   0.013  0.00  0.00    -0.041 C 
ATOM     15  H8  <0> d          -1.944  -0.182   0.910  0.00  0.00     0.036 H 
ATOM     16  H9  <0> d          -1.960  -0.173  -0.870  0.00  0.00     0.036 H 
BRANCH  14  17
ATOM     17  C6  <0> d           0.002  -0.004   0.002  0.00  0.00    -0.060 C 
ATOM     18  H10 <0> d           0.512  -0.356  -0.895  0.00  0.00     0.033 H 
ATOM     19  H11 <0> d           0.529  -0.365   0.885  0.00  0.00     0.033 H 
BRANCH  17  20
ATOM     20  C7  <0> d          -0.019   1.526   0.010  0.00  0.00    -0.050 C 
ATOM     21  H12 <0> d          -0.546   1.887  -0.873  0.00  0.00     0.038 H 
ATOM     22  H13 <0> d          -0.529   1.877   0.907  0.00  0.00     0.038 H 
BRANCH  20  23
ATOM     23  C8  <0> d           1.395   2.047  -0.000  0.00  0.00    -0.112 C 
ATOM     24  C9  <0> d           1.776   2.890  -0.929  0.00  0.00    -0.125 C 
ATOM     25  H15 <0> d           1.076   3.210  -1.687  0.00  0.00     0.066 H 
ATOM     26  H16 <0> d           2.789   3.263  -0.936  0.00  0.00     0.066 H 
ATOM     27  H14 <0> d           2.095   1.727   0.757  0.00  0.00     0.075 H 
ENDBRANCH  20  23
ENDBRANCH  17  20
ENDBRANCH  14  17
ENDBRANCH   1  14
BRANCH   1  28
ATOM     28  O1  <0> d          -0.849  -2.526  -1.224  0.00  0.00    -0.395 OA
ATOM     29  H17 <0> d          -1.334  -2.242  -2.011  0.00  0.00     0.210 HD
ENDBRANCH   1  28
TORSDOF 9
