REMARK  2 active torsions:
REMARK  status: ('A' for Active; 'I' for Inactive)
REMARK    1  A    between atoms: C1_1  and  O1_2 
REMARK    2  A    between atoms: O1_2  and  C2_3 
ROOT
ATOM      1  C2  <0> d           2.294   0.024  -0.020  0.00  0.00     0.205 A 
ATOM      2  C3  <0> d           2.273   1.417  -0.012  0.00  0.00     0.178 A 
ATOM      3  N1  <0> d           1.118   2.057   0.002  0.00  0.00    -0.243 NA
ATOM      4  C4  <0> d          -0.017   1.377   0.010  0.00  0.00     0.021 A 
ATOM      5  C5  <0> d           0.002  -0.004   0.002  0.00  0.00     0.022 A 
ATOM      6  N2  <0> d           1.155  -0.652  -0.013  0.00  0.00    -0.233 NA
ATOM      7 Cl1  <0> d           3.762   2.309  -0.022  0.00  0.00    -0.058 Cl
ATOM      8  H4  <0> d          -0.960   1.903   0.017  0.00  0.00     0.117 H 
ATOM      9  H5  <0> d          -0.926  -0.556   0.008  0.00  0.00     0.117 H 
ENDROOT
BRANCH   1  10
ATOM     10  O1  <0> d           3.478  -0.638  -0.035  0.00  0.00    -0.337 OA
BRANCH  10  11
ATOM     11  C1  <0> d           3.423  -2.066  -0.042  0.00  0.00     0.012 C 
ATOM     12  H1  <0> d           2.904  -2.414   0.851  0.00  0.00     0.067 H 
ATOM     13  H2  <0> d           2.887  -2.404  -0.929  0.00  0.00     0.067 H 
ATOM     14  H3  <0> d           4.436  -2.468  -0.054  0.00  0.00     0.067 H 
ENDBRANCH  10  11
ENDBRANCH   1  10
TORSDOF 2
