REMARK  5 active torsions:
REMARK  status: ('A' for Active; 'I' for Inactive)
REMARK    1  A    between atoms: C1_1  and  C2_2 
REMARK    2  A    between atoms: C5_5  and  C10_11 
REMARK    3  A    between atoms: C6_6  and  C8_8 
REMARK    4  A    between atoms: C8_8  and  C9_9 
REMARK    5  A    between atoms: C9_9  and  O1_10 
ROOT
ATOM      1  C2  <0> d          -1.502  -4.109  -1.198  0.00  0.00    -0.061 A 
ATOM      2  C3  <0> d          -1.376  -4.805  -0.011  0.00  0.00    -0.077 A 
ATOM      3  C4  <0> d          -1.269  -4.119   1.185  0.00  0.00    -0.076 A 
ATOM      4  C5  <0> d          -1.288  -2.736   1.192  0.00  0.00    -0.056 A 
ATOM      5  C6  <0> d          -1.413  -2.041   0.005  0.00  0.00    -0.050 A 
ATOM      6  C7  <0> d          -1.525  -2.727  -1.190  0.00  0.00    -0.071 A 
ATOM      7  H4  <0> d          -1.362  -5.885  -0.017  0.00  0.00     0.084 H 
ATOM      8  H5  <0> d          -1.171  -4.663   2.112  0.00  0.00     0.084 H 
ATOM      9  H6  <0> d          -1.627  -2.183  -2.118  0.00  0.00     0.085 H 
ENDROOT
BRANCH   5  10
ATOM     10  C8  <0> d          -1.433  -0.534   0.013  0.00  0.00    -0.021 C 
ATOM     11  H7  <0> d          -1.944  -0.182   0.910  0.00  0.00     0.043 H 
ATOM     12  H8  <0> d          -1.960  -0.173  -0.870  0.00  0.00     0.043 H 
BRANCH  10  13
ATOM     13  C9  <0> d           0.002  -0.004   0.002  0.00  0.00     0.020 C 
ATOM     14  H9  <0> d           0.512  -0.356  -0.895  0.00  0.00     0.074 H 
ATOM     15  H10 <0> d           0.529  -0.365   0.885  0.00  0.00     0.074 H 
BRANCH  13  16
ATOM     16  O1  <0> d          -0.017   1.425   0.010  0.00  0.00    -0.401 OA
ATOM     17  H11 <0> d           0.861   1.830   0.004  0.00  0.00     0.209 HD
ENDBRANCH  13  16
ENDBRANCH  10  13
ENDBRANCH   5  10
BRANCH   4  18
ATOM     18  C10 <0> d          -1.171  -1.988   2.495  0.00  0.00    -0.051 C 
ATOM     19  H12 <0> d          -2.166  -1.822   2.909  0.00  0.00     0.033 H 
ATOM     20  H13 <0> d          -0.579  -2.574   3.198  0.00  0.00     0.033 H 
ATOM     21  H14 <0> d          -0.685  -1.029   2.321  0.00  0.00     0.033 H 
ENDBRANCH   4  18
BRANCH   1  22
ATOM     22  C1  <0> d          -1.620  -4.857  -2.501  0.00  0.00    -0.051 C 
ATOM     23  H1  <0> d          -2.671  -5.051  -2.715  0.00  0.00     0.033 H 
ATOM     24  H2  <0> d          -1.190  -4.258  -3.304  0.00  0.00     0.033 H 
ATOM     25  H3  <0> d          -1.083  -5.803  -2.427  0.00  0.00     0.033 H 
ENDBRANCH   1  22
TORSDOF 5
