REMARK  2 active torsions:
REMARK  status: ('A' for Active; 'I' for Inactive)
REMARK    1  A    between atoms: C4_4  and  N1_8 
REMARK    2  A    between atoms: C6_6  and  O1_7 
ROOT
ATOM      1  C1  <0> d           1.862   1.822   1.195  0.00  0.00    -0.048 A 
ATOM      2  C2  <0> d           3.119   2.397   1.189  0.00  0.00    -0.041 A 
ATOM      3  C3  <0> d           3.740   2.695  -0.010  0.00  0.00     0.142 A 
ATOM      4  C4  <0> d           3.100   2.412  -1.213  0.00  0.00     0.067 A 
ATOM      5  C5  <0> d           1.841   1.830  -1.206  0.00  0.00    -0.023 A 
ATOM      6  C6  <0> d           1.223   1.533  -0.001  0.00  0.00     0.068 A 
ATOM      7  F1  <0> d           4.966   3.261  -0.014  0.00  0.00    -0.204 F 
ATOM      8  H1  <0> d           1.378   1.595   2.134  0.00  0.00     0.087 H 
ATOM      9  H2  <0> d           3.616   2.618   2.122  0.00  0.00     0.088 H 
ATOM     10  H3  <0> d           1.343   1.609  -2.139  0.00  0.00     0.091 H 
ENDROOT
BRANCH   4  11
ATOM     11  N1  <0> d           3.727   2.712  -2.426  0.00  0.00    -0.397 N 
ATOM     12  H5  <0> d           3.281   2.514  -3.265  0.00  0.00     0.156 HD
ATOM     13  H6  <0> d           4.607   3.119  -2.430  0.00  0.00     0.156 HD
ENDBRANCH   4  11
BRANCH   6  14
ATOM     14  O1  <0> d          -0.011   0.963   0.007  0.00  0.00    -0.361 OA
ATOM     15  H4  <0> d           0.002  -0.004   0.002  0.00  0.00     0.217 HD
ENDBRANCH   6  14
TORSDOF 2
