REMARK  1 active torsions:
REMARK  status: ('A' for Active; 'I' for Inactive)
REMARK    1  A    between atoms: C8_9  and  O3_12 
ROOT
ATOM      1  C1  <0> d           2.595  -1.874   2.619  0.00  0.00    -0.080 A 
ATOM      2  C2  <0> d           1.554  -2.580   2.045  0.00  0.00    -0.080 A 
ATOM      3  C3  <0> d           0.688  -1.951   1.171  0.00  0.00    -0.048 A 
ATOM      4  C4  <0> d           0.861  -0.609   0.867  0.00  0.00     0.105 A 
ATOM      5  C5  <0> d           1.906   0.101   1.445  0.00  0.00     0.102 A 
ATOM      6  C6  <0> d           2.773  -0.536   2.321  0.00  0.00    -0.048 A 
ATOM      7  O1  <0> d           2.092   1.420   1.164  0.00  0.00    -0.344 OA
ATOM      8  C7  <0> d           1.433   1.928  -0.001  0.00  0.00     0.072 C 
ATOM      9  C8  <0> d          -0.017   1.427   0.010  0.00  0.00     0.155 C 
ATOM     10  H1  <0> d          -0.522   1.783   0.908  0.00  0.00     0.132 H 
ATOM     11  O2  <0> d           0.002  -0.004   0.002  0.00  0.00    -0.316 OA
ATOM     12  H2  <0> d           3.271  -2.369   3.301  0.00  0.00     0.083 H 
ATOM     13  H3  <0> d           1.417  -3.626   2.281  0.00  0.00     0.083 H 
ATOM     14  H4  <0> d          -0.124  -2.505   0.725  0.00  0.00     0.087 H 
ATOM     15  H5  <0> d           3.587   0.013   2.770  0.00  0.00     0.087 H 
ATOM     16  H6  <0> d           1.940   1.567  -0.896  0.00  0.00     0.082 H 
ATOM     17  H7  <0> d           1.446   3.018   0.015  0.00  0.00     0.082 H 
ENDROOT
BRANCH   9  18
ATOM     18  O3  <0> d          -0.701   1.907  -1.150  0.00  0.00    -0.369 OA
ATOM     19  H8  <0> d          -1.620   1.611  -1.215  0.00  0.00     0.212 HD
ENDBRANCH   9  18
TORSDOF 1
