REMARK  1 active torsions:
REMARK  status: ('A' for Active; 'I' for Inactive)
REMARK    1  A    between atoms: C1_1  and  N1_2 
ROOT
ATOM      1  N1  <0> d           0.002  -0.004   0.002  0.00  0.00    -0.312 N 
ATOM      2  C2  <0> d           0.006  -0.669  -1.167  0.00  0.00     0.068 A 
ATOM      3  N2  <0> d           0.023  -1.973  -1.237  0.00  0.00    -0.254 NA
ATOM      4  C3  <0> d           0.039  -2.744  -0.153  0.00  0.00     0.029 A 
ATOM      5  C4  <0> d           0.036  -2.152   1.107  0.00  0.00     0.130 A 
ATOM      6  C5  <0> d           0.022  -0.685   1.169  0.00  0.00     0.270 A 
ATOM      7  O1  <0> d           0.025  -0.101   2.239  0.00  0.00    -0.266 OA
ATOM      8  C6  <0> d           0.052  -2.945   2.299  0.00  0.00     0.106 C 
ATOM      9  N3  <0> d           0.065  -3.574   3.245  0.00  0.00    -0.191 NA
ATOM     10  H4  <0> d          -0.007  -0.101  -2.086  0.00  0.00     0.143 H 
ATOM     11  H5  <0> d           0.052  -3.819  -0.249  0.00  0.00     0.117 H 
ENDROOT
BRANCH   1  12
ATOM     12  C1  <0> d          -0.018   1.461   0.010  0.00  0.00    -0.010 C 
ATOM     13  H1  <0> d           1.005   1.838   0.002  0.00  0.00     0.057 H 
ATOM     14  H2  <0> d          -0.545   1.822  -0.873  0.00  0.00     0.057 H 
ATOM     15  H3  <0> d          -0.528   1.812   0.907  0.00  0.00     0.057 H 
ENDBRANCH   1  12
TORSDOF 1
