REMARK  4 active torsions:
REMARK  status: ('A' for Active; 'I' for Inactive)
REMARK    1  A    between atoms: C1_1  and  C2_2 
REMARK    2  A    between atoms: C4_5  and  N2_7 
REMARK    3  A    between atoms: N2_7  and  C5_8 
REMARK    4  A    between atoms: N2_7  and  C6_9 
ROOT
ATOM      1  C2  <0> d          -0.739   3.466   0.028  0.00  0.00     0.145 A 
ATOM      2  N1  <0> d          -1.122   2.226   0.019  0.00  0.00    -0.214 NA
ATOM      3  C3  <0> d          -0.017   1.428   0.010  0.00  0.00     0.184 A 
ATOM      4  C4  <0> d           1.082   2.269   0.004  0.00  0.00     0.166 A 
ATOM      5  O1  <0> d           0.603   3.526   0.015  0.00  0.00    -0.281 OA
ATOM      6  C7  <0> d           0.002  -0.004   0.002  0.00  0.00     0.123 C 
ATOM      7  N3  <0> d           0.018  -1.140  -0.004  0.00  0.00    -0.190 NA
ENDROOT
BRANCH   4   8
ATOM      8  N2  <0> d           2.409   1.892  -0.011  0.00  0.00    -0.269 NA
BRANCH   8   9
ATOM      9  C5  <0> d           3.290   3.067  -0.013  0.00  0.00    -0.028 C 
ATOM     10  H4  <0> d           3.106   3.662   0.882  0.00  0.00     0.049 H 
ATOM     11  H5  <0> d           4.330   2.742  -0.025  0.00  0.00     0.049 H 
ATOM     12  H6  <0> d           3.088   3.671  -0.898  0.00  0.00     0.049 H 
ENDBRANCH   8   9
BRANCH   8  13
ATOM     13  C6  <0> d           2.717   1.005   1.119  0.00  0.00    -0.028 C 
ATOM     14  H7  <0> d           2.099   0.110   1.057  0.00  0.00     0.049 H 
ATOM     15  H8  <0> d           3.769   0.723   1.083  0.00  0.00     0.049 H 
ATOM     16  H9  <0> d           2.511   1.525   2.055  0.00  0.00     0.049 H 
ENDBRANCH   8  13
ENDBRANCH   4   8
BRANCH   1  17
ATOM     17  C1  <0> d          -1.660   4.658   0.044  0.00  0.00    -0.015 C 
ATOM     18  H1  <0> d          -1.892   4.952  -0.980  0.00  0.00     0.038 H 
ATOM     19  H2  <0> d          -2.581   4.399   0.565  0.00  0.00     0.038 H 
ATOM     20  H3  <0> d          -1.173   5.487   0.558  0.00  0.00     0.038 H 
ENDBRANCH   1  17
TORSDOF 4
