REMARK  2 active torsions:
REMARK  status: ('A' for Active; 'I' for Inactive)
REMARK    1  A    between atoms: C1_1  and  O1_2 
REMARK    2  A    between atoms: O1_2  and  C2_3 
ROOT
ATOM      1  C2  <0> d          -1.286   3.120   0.030  0.00  0.00     0.080 A 
ATOM      2  C3  <0> d          -1.234   1.743   0.017  0.00  0.00    -0.050 A 
ATOM      3  C4  <0> d          -0.013   1.076   0.008  0.00  0.00    -0.080 A 
ATOM      4  C5  <0> d           1.165   1.762   0.000  0.00  0.00    -0.072 A 
ATOM      5  C6  <0> d           1.154   3.163   0.008  0.00  0.00    -0.020 A 
ATOM      6  C7  <0> d          -0.085   3.856   0.023  0.00  0.00     0.025 A 
ATOM      7  C8  <0> d          -0.071   5.258   0.031  0.00  0.00     0.015 A 
ATOM      8  N1  <0> d           1.074   5.901   0.024  0.00  0.00    -0.272 NA
ATOM      9  C9  <0> d           2.245   5.280   0.009  0.00  0.00     0.003 A 
ATOM     10  C10 <0> d           2.339   3.922   0.001  0.00  0.00    -0.055 A 
ATOM     11  H4  <0> d          -2.152   1.175   0.019  0.00  0.00     0.087 H 
ATOM     12  H5  <0> d           0.002  -0.004   0.002  0.00  0.00     0.083 H 
ATOM     13  H6  <0> d           2.104   1.228  -0.011  0.00  0.00     0.084 H 
ATOM     14  H7  <0> d          -1.000   5.808   0.043  0.00  0.00     0.116 H 
ATOM     15  H8  <0> d           3.151   5.869   0.004  0.00  0.00     0.114 H 
ATOM     16  H9  <0> d           3.304   3.436  -0.010  0.00  0.00     0.087 H 
ENDROOT
BRANCH   1  17
ATOM     17  O1  <0> d          -2.483   3.761   0.044  0.00  0.00    -0.355 OA
BRANCH  17  18
ATOM     18  C1  <0> d          -3.656   2.945   0.051  0.00  0.00     0.010 C 
ATOM     19  H1  <0> d          -3.669   2.319  -0.842  0.00  0.00     0.066 H 
ATOM     20  H2  <0> d          -3.652   2.311   0.938  0.00  0.00     0.066 H 
ATOM     21  H3  <0> d          -4.541   3.580   0.062  0.00  0.00     0.066 H 
ENDBRANCH  17  18
ENDBRANCH   1  17
TORSDOF 2
