REMARK  7 active torsions:
REMARK  status: ('A' for Active; 'I' for Inactive)
REMARK    1  A    between atoms: C1_1  and  C2_2 
REMARK    2  A    between atoms: C2_2  and  C3_3 
REMARK    3  A    between atoms: C3_3  and  C4_5 
REMARK    4  A    between atoms: C3_3  and  O3_10 
REMARK    5  A    between atoms: C4_5  and  O2_7 
REMARK    6  A    between atoms: O2_7  and  C5_8 
REMARK    7  A    between atoms: C5_8  and  C6_9 
ROOT
ATOM      1  C3  <0> d          -0.729   1.579   1.267  0.00  0.00     0.118 C 
ATOM      2  H1  <0> d          -1.776   1.277   1.232  0.00  0.00     0.098 H 
ENDROOT
BRANCH   1   3
ATOM      3  C2  <0> d          -0.013   1.086   0.008  0.00  0.00    -0.036 C 
ATOM      4  H5  <0> d           0.002  -0.004   0.002  0.00  0.00     0.036 H 
ATOM      5  H6  <0> d           1.010   1.463   0.000  0.00  0.00     0.036 H 
BRANCH   3   6
ATOM      6  C1  <0> d          -0.753   1.593  -1.232  0.00  0.00    -0.074 C 
ATOM      7  H2  <0> d          -0.242   1.241  -2.128  0.00  0.00     0.027 H 
ATOM      8  H3  <0> d          -1.775   1.215  -1.224  0.00  0.00     0.027 H 
ATOM      9  H4  <0> d          -0.767   2.683  -1.226  0.00  0.00     0.027 H 
ENDBRANCH   3   6
ENDBRANCH   1   3
BRANCH   1  10
ATOM     10  C4  <0> d          -0.074   0.981   2.485  0.00  0.00     0.287 C 
ATOM     11  O1  <0> d           0.492   1.694   3.279  0.00  0.00    -0.262 OA
BRANCH  10  12
ATOM     12  O2  <0> d          -0.119  -0.346   2.688  0.00  0.00    -0.320 OA
BRANCH  12  13
ATOM     13  C5  <0> d           0.533  -0.853   3.882  0.00  0.00     0.026 C 
ATOM     14  H7  <0> d           1.592  -0.597   3.853  0.00  0.00     0.074 H 
ATOM     15  H8  <0> d           0.075  -0.405   4.764  0.00  0.00     0.074 H 
BRANCH  13  16
ATOM     16  C6  <0> d           0.377  -2.373   3.942  0.00  0.00    -0.056 C 
ATOM     17  H9  <0> d           0.867  -2.754   4.838  0.00  0.00     0.030 H 
ATOM     18  H10 <0> d          -0.682  -2.629   3.970  0.00  0.00     0.030 H 
ATOM     19  H11 <0> d           0.836  -2.821   3.059  0.00  0.00     0.030 H 
ENDBRANCH  13  16
ENDBRANCH  12  13
ENDBRANCH  10  12
ENDBRANCH   1  10
BRANCH   1  20
ATOM     20  O3  <0> d          -0.647   3.004   1.334  0.00  0.00    -0.386 OA
ATOM     21  H12 <0> d           0.258   3.345   1.368  0.00  0.00     0.210 HD
ENDBRANCH   1  20
TORSDOF 7
