REMARK  2 active torsions:
REMARK  status: ('A' for Active; 'I' for Inactive)
REMARK    1  A    between atoms: C2_2  and  C7_9 
REMARK    2  A    between atoms: C6_6  and  O1_7 
ROOT
ATOM      1  C1  <0> d          -0.017   1.380   0.010  0.00  0.00    -0.034 A 
ATOM      2  C2  <0> d           1.185   2.091   0.002  0.00  0.00     0.046 A 
ATOM      3  C3  <0> d           2.399   1.401  -0.013  0.00  0.00    -0.029 A 
ATOM      4  C4  <0> d           2.406   0.019  -0.021  0.00  0.00     0.120 A 
ATOM      5  C5  <0> d           1.213  -0.683  -0.014  0.00  0.00    -0.014 A 
ATOM      6  C6  <0> d           0.002  -0.004   0.002  0.00  0.00     0.069 A 
ATOM      7  F1  <0> d           3.581  -0.649  -0.036  0.00  0.00    -0.206 F 
ATOM      8  H1  <0> d          -0.958   1.909   0.026  0.00  0.00     0.089 H 
ATOM      9  H2  <0> d           3.332   1.946  -0.020  0.00  0.00     0.089 H 
ATOM     10  H3  <0> d           1.224  -1.763  -0.020  0.00  0.00     0.092 H 
ENDROOT
BRANCH   2  11
ATOM     11  C7  <0> d           1.173   3.567   0.009  0.00  0.00     0.209 C 
ATOM     12  O2  <0> d           0.109   4.169   0.022  0.00  0.00    -0.644 OA
ATOM     13  O3  <0> d           2.227   4.187   0.003  0.00  0.00    -0.644 OA
ENDBRANCH   2  11
BRANCH   6  14
ATOM     14  O1  <0> d          -1.166  -0.699   0.010  0.00  0.00    -0.361 OA
ATOM     15  H4  <0> d          -1.513  -0.895  -0.871  0.00  0.00     0.217 HD
ENDBRANCH   6  14
TORSDOF 2
