REMARK  4 active torsions:
REMARK  status: ('A' for Active; 'I' for Inactive)
REMARK    1  A    between atoms: C1_1  and  C2_2 
REMARK    2  A    between atoms: C3_3  and  C4_4 
REMARK    3  A    between atoms: C4_4  and  C5_6 
REMARK    4  A    between atoms: C4_4  and  O1_12 
ROOT
ATOM      1  C5  <0> d           1.819   3.766   1.254  0.00  0.00    -0.026 C 
ATOM      2  C6  <0> d           1.116   3.240   2.507  0.00  0.00    -0.059 C 
ATOM      3  C7  <0> d           1.843   3.753   3.753  0.00  0.00    -0.065 C 
ATOM      4  C8  <0> d           1.822   5.282   3.761  0.00  0.00    -0.065 C 
ATOM      5  C9  <0> d           2.524   5.809   2.508  0.00  0.00    -0.065 C 
ATOM      6  C10 <0> d           1.798   5.296   1.263  0.00  0.00    -0.059 C 
ATOM      7  H7  <0> d           2.851   3.417   1.242  0.00  0.00     0.044 H 
ATOM      8  H8  <0> d           0.084   3.589   2.519  0.00  0.00     0.033 H 
ATOM      9  H9  <0> d           1.131   2.150   2.501  0.00  0.00     0.033 H 
ATOM     10  H10 <0> d           2.875   3.403   3.741  0.00  0.00     0.033 H 
ATOM     11  H11 <0> d           1.342   3.378   4.645  0.00  0.00     0.033 H 
ATOM     12  H12 <0> d           2.339   5.648   4.648  0.00  0.00     0.033 H 
ATOM     13  H13 <0> d           0.789   5.632   3.773  0.00  0.00     0.033 H 
ATOM     14  H14 <0> d           3.557   5.460   2.496  0.00  0.00     0.033 H 
ATOM     15  H15 <0> d           2.509   6.899   2.514  0.00  0.00     0.033 H 
ATOM     16  H16 <0> d           2.298   5.671   0.370  0.00  0.00     0.033 H 
ATOM     17  H17 <0> d           0.765   5.645   1.274  0.00  0.00     0.033 H 
ENDROOT
BRANCH   1  18
ATOM     18  C4  <0> d           1.092   3.253   0.009  0.00  0.00     0.055 C 
ATOM     19  H1  <0> d           0.060   3.602   0.021  0.00  0.00     0.089 H 
BRANCH  18  20
ATOM     20  C3  <0> d           1.113   1.746   0.001  0.00  0.00    -0.080 C 
ATOM     21  C2  <0> d          -0.013   1.076   0.008  0.00  0.00    -0.108 C 
ATOM     22  H5  <0> d           0.002  -0.004   0.002  0.00  0.00     0.075 H 
ATOM     23  H6  <0> d           2.055   1.219  -0.011  0.00  0.00     0.080 H 
BRANCH  21  24
ATOM     24  C1  <0> d          -1.328   1.812   0.018  0.00  0.00    -0.060 C 
ATOM     25  H2  <0> d          -1.390   2.433   0.912  0.00  0.00     0.032 H 
ATOM     26  H3  <0> d          -1.398   2.442  -0.868  0.00  0.00     0.032 H 
ATOM     27  H4  <0> d          -2.147   1.092   0.018  0.00  0.00     0.032 H 
ENDBRANCH  21  24
ENDBRANCH  18  20
BRANCH  18  28
ATOM     28  O1  <0> d           1.748   3.745  -1.161  0.00  0.00    -0.391 OA
ATOM     29  H18 <0> d           2.673   3.472  -1.238  0.00  0.00     0.210 HD
ENDBRANCH  18  28
ENDBRANCH   1  18
TORSDOF 4
