REMARK  3 active torsions:
REMARK  status: ('A' for Active; 'I' for Inactive)
REMARK    1  A    between atoms: C1_1  and  C2_2 
REMARK    2  A    between atoms: C2_2  and  C3_3 
REMARK    3  A    between atoms: C2_2  and  C4_4 
ROOT
ATOM      1  C2  <0> d           0.002  -0.004   0.002  0.00  0.00     0.000 C 
ATOM      2  H5  <0> d           0.512  -0.356  -0.895  0.00  0.00     0.051 H 
ENDROOT
BRANCH   1   3
ATOM      3  C1  <0> d          -0.019   1.526   0.010  0.00  0.00    -0.066 C 
ATOM      4  H2  <0> d           1.004   1.903   0.003  0.00  0.00     0.028 H 
ATOM      5  H3  <0> d          -0.546   1.887  -0.873  0.00  0.00     0.028 H 
ATOM      6  H4  <0> d          -0.529   1.877   0.907  0.00  0.00     0.028 H 
ENDBRANCH   1   3
BRANCH   1   7
ATOM      7  C3  <0> d           0.742  -0.511   1.242  0.00  0.00    -0.066 C 
ATOM      8  H6  <0> d           0.232  -0.159   2.138  0.00  0.00     0.028 H 
ATOM      9  H7  <0> d           0.757  -1.601   1.236  0.00  0.00     0.028 H 
ATOM     10  H8  <0> d           1.765  -0.134   1.234  0.00  0.00     0.028 H 
ENDBRANCH   1   7
BRANCH   1  11
ATOM     11  C4  <0> d          -1.412  -0.526   0.013  0.00  0.00     0.152 A 
ATOM     12  N3  <0> d          -1.959  -1.298  -0.926  0.00  0.00    -0.201 NA
ATOM     13  C5  <0> d          -3.200  -1.571  -0.607  0.00  0.00     0.219 A 
ATOM     14  N2  <0> d          -3.474  -0.960   0.560  0.00  0.00    -0.249 N 
ATOM     15 Cl1  <0> d          -4.299  -2.546  -1.531  0.00  0.00    -0.042 Cl
ATOM     16  N1  <0> d          -2.301  -0.290   0.941  0.00  0.00    -0.157 NA
ATOM     17  H1  <0> d          -4.316  -0.979   1.042  0.00  0.00     0.191 HD
ENDBRANCH   1  11
TORSDOF 3
