REMARK  2 active torsions:
REMARK  status: ('A' for Active; 'I' for Inactive)
REMARK    1  A    between atoms: C1_1  and  C2_2 
REMARK       I    between atoms: C2_2  and  N1_4 
REMARK    2  A    between atoms: C6_8  and  O2_12 
ROOT
ATOM      1  C2  <0> d           0.002  -0.004   0.002  0.00  0.00     0.215 C 
ATOM      2  O1  <0> d           1.060  -0.596  -0.011  0.00  0.00    -0.274 OA
ATOM      3  N1  <0> d          -1.156  -0.694   0.009  0.00  0.00    -0.352 N 
ATOM      4  C3  <0> d          -2.427   0.057   0.019  0.00  0.00    -0.002 C 
ATOM      5  C4  <0> d          -3.471  -0.556  -0.931  0.00  0.00    -0.048 C 
ATOM      6  C5  <0> d          -2.809  -0.996  -2.214  0.00  0.00    -0.040 C 
ATOM      7  C6  <0> d          -2.385  -2.456  -2.090  0.00  0.00     0.037 C 
ATOM      8  H1  <0> d          -3.138  -2.986  -1.507  0.00  0.00     0.083 H 
ATOM      9  C7  <0> d          -1.074  -2.655  -1.453  0.00  0.00    -0.026 C 
ATOM     10  C8  <0> d          -1.102  -2.139   0.001  0.00  0.00    -0.000 C 
ATOM     11  H5  <0> d          -2.828   0.059   1.033  0.00  0.00     0.064 H 
ATOM     12  H6  <0> d          -2.232   1.086  -0.285  0.00  0.00     0.064 H 
ATOM     13  H7  <0> d          -3.935  -1.418  -0.450  0.00  0.00     0.035 H 
ATOM     14  H8  <0> d          -4.236   0.186  -1.155  0.00  0.00     0.035 H 
ATOM     15  H9  <0> d          -3.512  -0.890  -3.040  0.00  0.00     0.036 H 
ATOM     16  H10 <0> d          -1.932  -0.377  -2.401  0.00  0.00     0.036 H 
ATOM     17  H11 <0> d          -0.829  -3.716  -1.456  0.00  0.00     0.039 H 
ATOM     18  H12 <0> d          -0.315  -2.110  -2.014  0.00  0.00     0.039 H 
ATOM     19  H13 <0> d          -0.201  -2.471   0.517  0.00  0.00     0.064 H 
ATOM     20  H14 <0> d          -1.979  -2.537   0.510  0.00  0.00     0.064 H 
ENDROOT
BRANCH   1  21
ATOM     21  C1  <0> d          -0.018   1.503   0.010  0.00  0.00    -0.003 C 
ATOM     22  H2  <0> d           1.004   1.880   0.003  0.00  0.00     0.040 H 
ATOM     23  H3  <0> d          -0.545   1.864  -0.873  0.00  0.00     0.040 H 
ATOM     24  H4  <0> d          -0.529   1.854   0.907  0.00  0.00     0.040 H 
ENDBRANCH   1  21
BRANCH   7  25
ATOM     25  O2  <0> d          -2.342  -3.028  -3.399  0.00  0.00    -0.396 OA
ATOM     26  H15 <0> d          -2.080  -3.959  -3.413  0.00  0.00     0.210 HD
ENDBRANCH   7  25
TORSDOF 2
