REMARK  2 active torsions:
REMARK  status: ('A' for Active; 'I' for Inactive)
REMARK    1  A    between atoms: C1_1  and  C2_2 
REMARK    2  A    between atoms: C4_6  and  C5_8 
ROOT
ATOM      1  C2  <0> d           0.002  -0.004   0.002  0.00  0.00     0.022 A 
ATOM      2  C3  <0> d           0.008  -0.789  -1.092  0.00  0.00    -0.000 A 
ATOM      3  N1  <0> d           0.029  -2.085  -0.650  0.00  0.00    -0.354 N 
ATOM      4  H1  <0> d           0.037  -2.882  -1.202  0.00  0.00     0.166 HD
ATOM      5  C4  <0> d           0.034  -2.046   0.700  0.00  0.00     0.077 A 
ATOM      6  N2  <0> d           0.023  -0.798   1.083  0.00  0.00    -0.349 N 
ATOM      7  H5  <0> d          -0.001  -0.461  -2.121  0.00  0.00     0.114 H 
ATOM      8  H9  <0> d           0.028  -0.493   2.004  0.00  0.00     0.167 HD
ENDROOT
BRANCH   1   9
ATOM      9  C1  <0> d          -0.018   1.503   0.010  0.00  0.00    -0.036 C 
ATOM     10  H2  <0> d           1.004   1.880   0.003  0.00  0.00     0.035 H 
ATOM     11  H3  <0> d          -0.545   1.864  -0.873  0.00  0.00     0.035 H 
ATOM     12  H4  <0> d          -0.529   1.854   0.907  0.00  0.00     0.035 H 
ENDBRANCH   1   9
BRANCH   5  13
ATOM     13  C5  <0> d           0.055  -3.244   1.613  0.00  0.00    -0.023 C 
ATOM     14  H6  <0> d           1.087  -3.518   1.829  0.00  0.00     0.037 H 
ATOM     15  H7  <0> d          -0.459  -3.001   2.544  0.00  0.00     0.037 H 
ATOM     16  H8  <0> d          -0.449  -4.080   1.128  0.00  0.00     0.037 H 
ENDBRANCH   5  13
TORSDOF 2
