REMARK  0 active torsions:
REMARK  status: ('A' for Active; 'I' for Inactive)
ROOT
ATOM      1  C1  <0> d          -0.018   1.460   0.010  0.00  0.00    -0.012 A 
ATOM      2  C2  <0> d           1.153   2.140   0.003  0.00  0.00    -0.032 A 
ATOM      3  C3  <0> d           2.414   1.391  -0.013  0.00  0.00     0.148 A 
ATOM      4  N1  <0> d           3.674   1.781  -0.023  0.00  0.00    -0.240 NA
ATOM      5  C4  <0> d           4.464   0.709  -0.037  0.00  0.00     0.021 A 
ATOM      6  C5  <0> d           3.684  -0.399  -0.035  0.00  0.00     0.021 A 
ATOM      7  N2  <0> d           2.389   0.024  -0.021  0.00  0.00    -0.245 N 
ATOM      8  N3  <0> d           1.174  -0.667  -0.013  0.00  0.00    -0.259 N 
ATOM      9  H1  <0> d           1.175  -1.637  -0.018  0.00  0.00     0.191 HD
ATOM     10  C6  <0> d           0.002  -0.004   0.002  0.00  0.00     0.260 A 
ATOM     11  O1  <0> d          -1.045  -0.624   0.009  0.00  0.00    -0.267 OA
ATOM     12  H2  <0> d          -0.957   1.992   0.026  0.00  0.00     0.092 H 
ATOM     13  H3  <0> d           1.158   3.220   0.008  0.00  0.00     0.089 H 
ATOM     14  H4  <0> d           5.544   0.721  -0.047  0.00  0.00     0.117 H 
ATOM     15  H5  <0> d           4.024  -1.424  -0.044  0.00  0.00     0.117 H 
ENDROOT
TORSDOF 0
