REMARK  1 active torsions:
REMARK  status: ('A' for Active; 'I' for Inactive)
REMARK    1  A    between atoms: C10_10  and  N1_11 
ROOT
ATOM      1  C1  <0> d          -0.016   1.357   0.009  0.00  0.00    -0.082 A 
ATOM      2  C2  <0> d           1.169   2.090   0.002  0.00  0.00    -0.082 A 
ATOM      3  C3  <0> d           2.378   1.466  -0.013  0.00  0.00    -0.070 A 
ATOM      4  C4  <0> d           2.437   0.064  -0.021  0.00  0.00     0.000 A 
ATOM      5  C5  <0> d           1.233  -0.683  -0.013  0.00  0.00    -0.024 A 
ATOM      6  C6  <0> d           0.002  -0.004   0.002  0.00  0.00    -0.072 A 
ATOM      7  C7  <0> d           1.290  -2.087  -0.020  0.00  0.00    -0.072 A 
ATOM      8  C8  <0> d           2.496  -2.719  -0.034  0.00  0.00    -0.080 A 
ATOM      9  C9  <0> d           3.685  -1.997  -0.041  0.00  0.00    -0.057 A 
ATOM     10  C10 <0> d           3.673  -0.618  -0.036  0.00  0.00     0.036 A 
ATOM     11  H1  <0> d          -0.963   1.876   0.026  0.00  0.00     0.083 H 
ATOM     12  H2  <0> d           1.126   3.169   0.008  0.00  0.00     0.083 H 
ATOM     13  H3  <0> d           3.289   2.047  -0.019  0.00  0.00     0.084 H 
ATOM     14  H4  <0> d          -0.924  -0.559   0.008  0.00  0.00     0.084 H 
ATOM     15  H5  <0> d           0.377  -2.665  -0.014  0.00  0.00     0.084 H 
ATOM     16  H6  <0> d           2.530  -3.798  -0.040  0.00  0.00     0.083 H 
ATOM     17  H7  <0> d           4.629  -2.522  -0.052  0.00  0.00     0.086 H 
ENDROOT
BRANCH  10  18
ATOM     18  N1  <0> d           4.869   0.096  -0.044  0.00  0.00    -0.398 N 
ATOM     19  H8  <0> d           4.855   1.066  -0.039  0.00  0.00     0.156 HD
ATOM     20  H9  <0> d           5.716  -0.377  -0.054  0.00  0.00     0.156 HD
ENDBRANCH  10  18
TORSDOF 1
