REMARK  1 active torsions:
REMARK  status: ('A' for Active; 'I' for Inactive)
REMARK    1  A    between atoms: C6_6  and  O1_7 
ROOT
ATOM      1  C1  <0> d          -2.390   5.113   0.049  0.00  0.00    -0.049 A 
ATOM      2  C2  <0> d          -2.399   3.753   0.043  0.00  0.00    -0.050 A 
ATOM      3  C3  <0> d          -1.183   3.047   0.029  0.00  0.00     0.085 A 
ATOM      4  C4  <0> d           0.040   3.765   0.021  0.00  0.00     0.087 A 
ATOM      5  C5  <0> d           0.014   5.169   0.027  0.00  0.00    -0.021 A 
ATOM      6  C6  <0> d          -1.185   5.823   0.041  0.00  0.00     0.068 A 
ATOM      7  N1  <0> d           1.198   3.096   0.006  0.00  0.00    -0.257 NA
ATOM      8  C7  <0> d           1.192   1.783   0.000  0.00  0.00     0.020 A 
ATOM      9  C8  <0> d          -0.013   1.076   0.008  0.00  0.00     0.020 A 
ATOM     10  N2  <0> d          -1.163   1.710   0.017  0.00  0.00    -0.257 NA
ATOM     11  H1  <0> d          -3.326   5.652   0.061  0.00  0.00     0.087 H 
ATOM     12  H2  <0> d          -3.337   3.218   0.050  0.00  0.00     0.087 H 
ATOM     13  H3  <0> d           0.937   5.729   0.020  0.00  0.00     0.091 H 
ATOM     14  H5  <0> d           2.127   1.244  -0.011  0.00  0.00     0.117 H 
ATOM     15  H6  <0> d           0.002  -0.004   0.002  0.00  0.00     0.117 H 
ENDROOT
BRANCH   6  16
ATOM     16  O1  <0> d          -1.208   7.181   0.046  0.00  0.00    -0.361 OA
ATOM     17  H4  <0> d          -0.264   7.747   0.040  0.00  0.00     0.217 HD
ENDBRANCH   6  16
TORSDOF 1
