REMARK  0 active torsions:
REMARK  status: ('A' for Active; 'I' for Inactive)
ROOT
ATOM      1  C1  <0> d          -0.013   1.076   0.008  0.00  0.00     0.013 A 
ATOM      2  C2  <0> d          -1.219   1.762   0.017  0.00  0.00     0.160 A 
ATOM      3  C3  <0> d          -1.188   3.154   0.030  0.00  0.00     0.172 A 
ATOM      4  C4  <0> d           0.034   3.800   0.022  0.00  0.00     0.045 A 
ATOM      5  N1  <0> d           1.161   3.114   0.008  0.00  0.00    -0.230 NA
ATOM      6  C5  <0> d           1.171   1.793   0.001  0.00  0.00     0.212 A 
ATOM      7  F1  <0> d           2.351   1.135  -0.015  0.00  0.00    -0.184 F 
ATOM      8  F2  <0> d          -2.337   3.864   0.045  0.00  0.00    -0.201 F 
ATOM      9  F3  <0> d          -2.394   1.096   0.019  0.00  0.00    -0.203 F 
ATOM     10  H1  <0> d           0.002  -0.004   0.002  0.00  0.00     0.095 H 
ATOM     11  H2  <0> d           0.067   4.880   0.028  0.00  0.00     0.119 H 
ENDROOT
TORSDOF 0
