REMARK  4 active torsions:
REMARK  status: ('A' for Active; 'I' for Inactive)
REMARK    1  A    between atoms: C1_1  and  C2_2 
REMARK    2  A    between atoms: C2_2  and  O3_9 
REMARK    3  A    between atoms: C5_6  and  C6_7 
REMARK    4  A    between atoms: C5_6  and  O2_8 
ROOT
ATOM      1  C2  <0> d           1.286   1.562  -0.002  0.00  0.00     0.112 C 
ATOM      2  C3  <0> d           2.020   1.244  -1.327  0.00  0.00    -0.012 C 
ATOM      3  C4  <0> d           1.760   2.527  -2.158  0.00  0.00     0.026 C 
ATOM      4  O1  <0> d           1.827   3.583  -1.176  0.00  0.00    -0.353 OA
ATOM      5  C5  <0> d           1.171   3.098   0.007  0.00  0.00     0.189 C 
ATOM      6  H4  <0> d           3.087   1.102  -1.157  0.00  0.00     0.040 H 
ATOM      7  H5  <0> d           1.585   0.371  -1.813  0.00  0.00     0.040 H 
ATOM      8  H6  <0> d           0.772   2.492  -2.618  0.00  0.00     0.074 H 
ATOM      9  H7  <0> d           2.531   2.659  -2.917  0.00  0.00     0.074 H 
ENDROOT
BRANCH   1  10
ATOM     10  C1  <0> d           2.106   1.079   1.196  0.00  0.00    -0.043 C 
ATOM     11  H1  <0> d           2.205  -0.006   1.156  0.00  0.00     0.031 H 
ATOM     12  H2  <0> d           3.096   1.535   1.167  0.00  0.00     0.031 H 
ATOM     13  H3  <0> d           1.602   1.363   2.120  0.00  0.00     0.031 H 
ENDBRANCH   1  10
BRANCH   1  14
ATOM     14  O3  <0> d          -0.011   0.963   0.007  0.00  0.00    -0.385 OA
ATOM     15  H12 <0> d           0.002  -0.004   0.002  0.00  0.00     0.210 HD
ENDBRANCH   1  14
BRANCH   5  16
ATOM     16  C6  <0> d          -0.302   3.510  -0.008  0.00  0.00    -0.022 C 
ATOM     17  H8  <0> d          -0.802   3.106   0.873  0.00  0.00     0.035 H 
ATOM     18  H9  <0> d          -0.376   4.597  -0.002  0.00  0.00     0.035 H 
ATOM     19  H10 <0> d          -0.779   3.119  -0.907  0.00  0.00     0.035 H 
ENDBRANCH   5  16
BRANCH   5  20
ATOM     20  O2  <0> d           1.813   3.627   1.170  0.00  0.00    -0.363 OA
ATOM     21  H11 <0> d           1.776   4.591   1.235  0.00  0.00     0.213 HD
ENDBRANCH   5  20
TORSDOF 4
