REMARK  3 active torsions:
REMARK  status: ('A' for Active; 'I' for Inactive)
REMARK    1  A    between atoms: N1_4  and  C6_8 
REMARK    2  A    between atoms: C6_8  and  C7_9 
REMARK    3  A    between atoms: C7_9  and  O2_10 
ROOT
ATOM      1  C1  <0> d          -4.564  -0.150   1.470  0.00  0.00    -0.076 A 
ATOM      2  C2  <0> d          -4.358   1.073   0.816  0.00  0.00    -0.068 A 
ATOM      3  C3  <0> d          -3.117   1.612   0.767  0.00  0.00    -0.017 A 
ATOM      4  N1  <0> d          -2.062   0.977   1.338  0.00  0.00    -0.323 N 
ATOM      5  C4  <0> d          -2.228  -0.199   1.974  0.00  0.00     0.247 A 
ATOM      6  O1  <0> d          -1.271  -0.756   2.487  0.00  0.00    -0.268 OA
ATOM      7  C5  <0> d          -3.504  -0.784   2.048  0.00  0.00    -0.017 A 
ATOM      8  H1  <0> d          -5.552  -0.584   1.517  0.00  0.00     0.083 H 
ATOM      9  H2  <0> d          -5.189   1.586   0.354  0.00  0.00     0.085 H 
ATOM     10  H3  <0> d          -2.965   2.556   0.265  0.00  0.00     0.111 H 
ATOM     11  H4  <0> d          -3.643  -1.727   2.557  0.00  0.00     0.092 H 
ENDROOT
BRANCH   4  12
ATOM     12  C6  <0> d          -0.729   1.579   1.267  0.00  0.00     0.022 C 
ATOM     13  H5  <0> d          -0.154   1.294   2.148  0.00  0.00     0.068 H 
ATOM     14  H6  <0> d          -0.822   2.665   1.230  0.00  0.00     0.068 H 
BRANCH  12  15
ATOM     15  C7  <0> d          -0.013   1.086   0.008  0.00  0.00     0.032 C 
ATOM     16  H7  <0> d           0.002  -0.004   0.002  0.00  0.00     0.076 H 
ATOM     17  H8  <0> d           1.010   1.463   0.000  0.00  0.00     0.076 H 
BRANCH  15  18
ATOM     18  O2  <0> d          -0.704   1.559  -1.150  0.00  0.00    -0.399 OA
ATOM     19  H9  <0> d          -0.304   1.284  -1.986  0.00  0.00     0.209 HD
ENDBRANCH  15  18
ENDBRANCH  12  15
ENDBRANCH   4  12
TORSDOF 3
