REMARK  3 active torsions:
REMARK  status: ('A' for Active; 'I' for Inactive)
REMARK    1  A    between atoms: C1_1  and  C2_2 
REMARK    2  A    between atoms: C6_7  and  C7_9 
REMARK    3  A    between atoms: C7_9  and  C8_10 
ROOT
ATOM      1  C2  <0> d          -2.231   1.867   0.765  0.00  0.00    -0.054 C 
ATOM      2  H1  <0> d          -2.483   2.920   0.895  0.00  0.00     0.040 H 
ATOM      3  C3  <0> d          -0.786   1.609   1.236  0.00  0.00    -0.062 C 
ATOM      4  C4  <0> d          -0.013   1.086   0.008  0.00  0.00    -0.064 C 
ATOM      5  C5  <0> d          -0.812   1.624  -1.205  0.00  0.00    -0.061 C 
ATOM      6  C6  <0> d          -2.281   1.493  -0.731  0.00  0.00    -0.042 C 
ATOM      7  H2  <0> d          -2.632   0.469  -0.856  0.00  0.00     0.041 H 
ATOM      8  H6  <0> d          -0.778   0.860   2.029  0.00  0.00     0.033 H 
ATOM      9  H7  <0> d          -0.337   2.535   1.593  0.00  0.00     0.033 H 
ATOM     10  H8  <0> d           0.002  -0.004   0.002  0.00  0.00     0.033 H 
ATOM     11  H9  <0> d           1.003   1.480   0.000  0.00  0.00     0.033 H 
ATOM     12  H10 <0> d          -0.561   2.666  -1.401  0.00  0.00     0.033 H 
ATOM     13  H11 <0> d          -0.632   1.011  -2.088  0.00  0.00     0.033 H 
ENDROOT
BRANCH   6  14
ATOM     14  C7  <0> d          -3.180   2.464  -1.499  0.00  0.00     0.019 C 
ATOM     15  H12 <0> d          -4.184   2.442  -1.076  0.00  0.00     0.049 H 
ATOM     16  H13 <0> d          -2.775   3.473  -1.421  0.00  0.00     0.049 H 
BRANCH  14  17
ATOM     17  C8  <0> d          -3.236   2.057  -2.949  0.00  0.00     0.172 C 
ATOM     18  O1  <0> d          -2.620   1.089  -3.329  0.00  0.00    -0.648 OA
ATOM     19  O2  <0> d          -3.970   2.769  -3.818  0.00  0.00    -0.648 OA
ENDBRANCH  14  17
ENDBRANCH   6  14
BRANCH   1  20
ATOM     20  C1  <0> d          -3.205   0.993   1.557  0.00  0.00    -0.073 C 
ATOM     21  H3  <0> d          -2.930  -0.055   1.440  0.00  0.00     0.028 H 
ATOM     22  H4  <0> d          -3.162   1.265   2.611  0.00  0.00     0.028 H 
ATOM     23  H5  <0> d          -4.217   1.146   1.183  0.00  0.00     0.028 H 
ENDBRANCH   1  20
TORSDOF 3
