REMARK  2 active torsions:
REMARK  status: ('A' for Active; 'I' for Inactive)
REMARK    1  A    between atoms: C1_1  and  N1_2 
REMARK    2  A    between atoms: N1_2  and  C2_3 
ROOT
ATOM      1  C2  <0> d           0.600  -0.681  -1.043  0.00  0.00     0.140 A 
ATOM      2  C3  <0> d           0.628  -2.089  -1.068  0.00  0.00     0.076 A 
ATOM      3  C4  <0> d           0.156  -3.107  -0.212  0.00  0.00     0.039 A 
ATOM      4  N2  <0> d           0.463  -4.260  -0.734  0.00  0.00    -0.184 NA
ATOM      5  N3  <0> d           1.143  -4.065  -1.943  0.00  0.00    -0.261 N 
ATOM      6  H1  <0> d           1.490  -4.786  -2.543  0.00  0.00     0.191 HD
ATOM      7  C5  <0> d           1.251  -2.724  -2.160  0.00  0.00     0.160 A 
ATOM      8  N4  <0> d           1.786  -1.972  -3.121  0.00  0.00    -0.222 NA
ATOM      9  C6  <0> d           1.734  -0.660  -3.054  0.00  0.00     0.091 A 
ATOM     10  N5  <0> d           1.156  -0.020  -2.052  0.00  0.00    -0.224 NA
ATOM     11  H6  <0> d          -0.371  -2.955   0.718  0.00  0.00     0.119 H 
ATOM     12  H7  <0> d           2.177  -0.082  -3.851  0.00  0.00     0.146 H 
ENDROOT
BRANCH   1  13
ATOM     13  N1  <0> d           0.002  -0.004   0.002  0.00  0.00    -0.378 N 
ATOM     14  H5  <0> d          -0.404  -0.499   0.731  0.00  0.00     0.160 HD
BRANCH  13  15
ATOM     15  C1  <0> d          -0.018   1.461   0.010  0.00  0.00    -0.020 C 
ATOM     16  H2  <0> d           1.005   1.838   0.002  0.00  0.00     0.056 H 
ATOM     17  H3  <0> d          -0.545   1.822  -0.873  0.00  0.00     0.056 H 
ATOM     18  H4  <0> d          -0.528   1.812   0.907  0.00  0.00     0.056 H 
ENDBRANCH  13  15
ENDBRANCH   1  13
TORSDOF 2
