REMARK  2 active torsions:
REMARK  status: ('A' for Active; 'I' for Inactive)
REMARK    1  A    between atoms: C3_3  and  C5_5 
REMARK    2  A    between atoms: C6_8  and  N3_10 
ROOT
ATOM      1  C1  <0> d          -1.757  -2.939  -0.252  0.00  0.00    -0.064 C 
ATOM      2  C2  <0> d          -1.282  -1.838  -1.215  0.00  0.00    -0.055 C 
ATOM      3  C3  <0> d          -1.202  -0.911   0.009  0.00  0.00     0.012 C 
ATOM      4  C4  <0> d          -1.012  -2.179   0.858  0.00  0.00    -0.055 C 
ATOM      5  H1  <0> d          -1.338  -3.952  -0.347  0.00  0.00     0.033 H 
ATOM      6  H2  <0> d          -2.825  -3.006   0.002  0.00  0.00     0.033 H 
ATOM      7  H3  <0> d          -0.352  -2.158  -1.708  0.00  0.00     0.034 H 
ATOM      8  H4  <0> d          -2.056  -1.657  -1.975  0.00  0.00     0.034 H 
ATOM      9  H5  <0> d          -1.970  -0.157   0.234  0.00  0.00     0.052 H 
ATOM     10  H6  <0> d          -1.565  -2.279   1.804  0.00  0.00     0.034 H 
ATOM     11  H7  <0> d          -0.003  -2.599   0.977  0.00  0.00     0.034 H 
ENDROOT
BRANCH   3  12
ATOM     12  C5  <0> d           0.002  -0.004   0.002  0.00  0.00     0.175 A 
ATOM     13  O1  <0> d          -0.016   1.343   0.009  0.00  0.00    -0.260 OA
ATOM     14  C6  <0> d           1.270   1.739  -0.001  0.00  0.00     0.265 A 
ATOM     15  N2  <0> d           2.010   0.656  -0.014  0.00  0.00    -0.103 NA
ATOM     16  N1  <0> d           1.247  -0.380  -0.012  0.00  0.00    -0.125 NA
BRANCH  14  17
ATOM     17  N3  <0> d           1.727   3.044   0.002  0.00  0.00    -0.362 N 
ATOM     18  H8  <0> d           1.009   3.877   0.013  0.00  0.00     0.159 HD
ATOM     19  H9  <0> d           2.808   3.248  -0.008  0.00  0.00     0.159 HD
ENDBRANCH  14  17
ENDBRANCH   3  12
TORSDOF 2
