REMARK  2 active torsions:
REMARK  status: ('A' for Active; 'I' for Inactive)
REMARK    1  A    between atoms: C2_2  and  C3_3 
REMARK    2  A    between atoms: C3_3  and  N1_4 
ROOT
ATOM      1  C3  <0> d          -0.013   1.086   0.008  0.00  0.00     0.032 C 
ATOM      2  H4  <0> d           0.002  -0.004   0.002  0.00  0.00     0.073 H 
ATOM      3  H5  <0> d           1.010   1.463   0.000  0.00  0.00     0.073 H 
ENDROOT
BRANCH   1   4
ATOM      4  C2  <0> d          -0.742   1.585  -1.213  0.00  0.00    -0.093 C 
ATOM      5  C1  <0> d          -0.098   2.269  -2.126  0.00  0.00    -0.123 C 
ATOM      6  H1  <0> d          -0.620   2.627  -3.001  0.00  0.00     0.066 H 
ATOM      7  H2  <0> d           0.955   2.475  -2.004  0.00  0.00     0.066 H 
ATOM      8  H3  <0> d          -1.795   1.379  -1.335  0.00  0.00     0.078 H 
ENDBRANCH   1   4
BRANCH   1   9
ATOM      9  N1  <0> d          -0.698   1.558   1.213  0.00  0.00    -0.259 N 
ATOM     10  N3  <0> d          -1.003   2.889   1.541  0.00  0.00    -0.164 NA
ATOM     11  C5  <0> d          -1.616   2.863   2.696  0.00  0.00     0.107 A 
ATOM     12  N2  <0> d          -1.704   1.600   3.110  0.00  0.00    -0.234 NA
ATOM     13  H7  <0> d          -1.986   3.726   3.229  0.00  0.00     0.149 H 
ATOM     14  C4  <0> d          -1.156   0.804   2.228  0.00  0.00     0.084 A 
ATOM     15  H6  <0> d          -1.084  -0.271   2.302  0.00  0.00     0.146 H 
ENDBRANCH   1   9
TORSDOF 2
