REMARK  3 active torsions:
REMARK  status: ('A' for Active; 'I' for Inactive)
REMARK    1  A    between atoms: C1_1  and  N1_2 
REMARK    2  A    between atoms: N1_2  and  C2_3 
REMARK    3  A    between atoms: C5_6  and  C6_9 
ROOT
ATOM      1  C2  <0> d          -3.610   3.329   0.038  0.00  0.00     0.145 A 
ATOM      2  C3  <0> d          -3.690   1.936   0.031  0.00  0.00    -0.035 A 
ATOM      3  C4  <0> d          -2.509   1.217   0.021  0.00  0.00    -0.043 A 
ATOM      4  C5  <0> d          -1.304   1.932   0.019  0.00  0.00     0.155 A 
ATOM      5  N2  <0> d          -1.324   3.260   0.032  0.00  0.00    -0.141 NA
ATOM      6  N3  <0> d          -2.422   3.925   0.036  0.00  0.00    -0.132 NA
ATOM      7  H5  <0> d          -4.646   1.434   0.032  0.00  0.00     0.089 H 
ATOM      8  H6  <0> d          -2.515   0.137   0.014  0.00  0.00     0.087 H 
ENDROOT
BRANCH   1   9
ATOM      9  N1  <0> d          -4.766   4.090   0.048  0.00  0.00    -0.378 N 
ATOM     10  H4  <0> d          -4.702   5.189   0.054  0.00  0.00     0.160 HD
BRANCH   9  11
ATOM     11  C1  <0> d          -6.076   3.433   0.050  0.00  0.00    -0.020 C 
ATOM     12  H1  <0> d          -6.869   4.195   0.058  0.00  0.00     0.056 H 
ATOM     13  H2  <0> d          -6.167   2.800   0.945  0.00  0.00     0.056 H 
ATOM     14  H3  <0> d          -6.175   2.810  -0.851  0.00  0.00     0.056 H 
ENDBRANCH   9  11
ENDBRANCH   1   9
BRANCH   4  15
ATOM     15  C6  <0> d          -0.014   1.210   0.009  0.00  0.00     0.230 C 
ATOM     16  O1  <0> d           0.002  -0.004   0.002  0.00  0.00    -0.643 OA
ATOM     17  O2  <0> d           1.143   1.900   0.001  0.00  0.00    -0.643 OA
ENDBRANCH   4  15
TORSDOF 3
