REMARK  3 active torsions:
REMARK  status: ('A' for Active; 'I' for Inactive)
REMARK    1  A    between atoms: N1_6  and  C5_7 
REMARK    2  A    between atoms: C5_7  and  C6_8 
REMARK    3  A    between atoms: C6_8  and  C7_9 
REMARK       I    between atoms: C7_9  and  N2_11 
ROOT
ATOM      1  C1  <0> d           1.421   1.950  -0.001  0.00  0.00     0.133 C 
ATOM      2  C2  <0> d          -0.017   1.426   0.010  0.00  0.00     0.044 C 
ATOM      3  O1  <0> d           0.002  -0.004   0.002  0.00  0.00    -0.388 OA
ATOM      4  C3  <0> d           0.701  -0.577   1.111  0.00  0.00     0.044 C 
ATOM      5  C4  <0> d           2.147  -0.072   1.111  0.00  0.00     0.133 C 
ATOM      6  N1  <0> d           2.148   1.397   1.151  0.00  0.00     0.093 N 
ATOM      7  H1  <0> d           1.413   3.049   0.063  0.00  0.00     0.083 H 
ATOM      8  H2  <0> d           1.919   1.641  -0.932  0.00  0.00     0.083 H 
ATOM      9  H3  <0> d          -0.531   1.783   0.915  0.00  0.00     0.077 H 
ATOM     10  H4  <0> d          -0.548   1.792  -0.881  0.00  0.00     0.077 H 
ATOM     11  H5  <0> d           0.207  -0.280   2.048  0.00  0.00     0.077 H 
ATOM     12  H6  <0> d           0.693  -1.673   1.022  0.00  0.00     0.077 H 
ATOM     13  H7  <0> d           2.672  -0.466   1.994  0.00  0.00     0.083 H 
ATOM     14  H8  <0> d           2.655  -0.416   0.198  0.00  0.00     0.083 H 
ENDROOT
BRANCH   6  15
ATOM     15  C5  <0> d           3.519   1.922   1.210  0.00  0.00     0.121 C 
ATOM     16  H9  <0> d           3.956   1.695   2.193  0.00  0.00     0.080 H 
ATOM     17  H10 <0> d           4.125   1.452   0.421  0.00  0.00     0.080 H 
BRANCH  15  18
ATOM     18  C6  <0> d           3.495   3.437   1.000  0.00  0.00     0.034 C 
ATOM     19  H11 <0> d           3.057   3.664   0.017  0.00  0.00     0.049 H 
ATOM     20  H12 <0> d           2.888   3.907   1.788  0.00  0.00     0.049 H 
BRANCH  18  21
ATOM     21  C7  <0> d           4.901   3.975   1.060  0.00  0.00     0.216 C 
ATOM     22  O2  <0> d           5.831   3.220   1.252  0.00  0.00    -0.274 OA
ATOM     23  N2  <0> d           5.125   5.294   0.901  0.00  0.00    -0.370 N 
ATOM     24  H13 <0> d           6.152   5.687   0.945  0.00  0.00     0.159 HD
ATOM     25  H14 <0> d           4.282   5.978   0.727  0.00  0.00     0.159 HD
ENDBRANCH  18  21
ENDBRANCH  15  18
ENDBRANCH   6  15
TORSDOF 3
