REMARK  3 active torsions:
REMARK  status: ('A' for Active; 'I' for Inactive)
REMARK    1  A    between atoms: C1_1  and  C2_2 
REMARK    2  A    between atoms: C2_2  and  C3_4 
REMARK    3  A    between atoms: C2_2  and  O2_10 
ROOT
ATOM      1  C3  <0> d          -0.063   3.092   0.019  0.00  0.00     0.063 A 
ATOM      2  H2  <0> d          -0.092   3.684   0.933  0.00  0.00     0.061 H 
ATOM      3  C4  <0> d           1.016   2.009   0.003  0.00  0.00     0.009 A 
ATOM      4  N1  <0> d          -0.011   0.966   0.007  0.00  0.00    -0.360 N 
ATOM      5  C5  <0> d          -0.981   1.899   0.016  0.00  0.00     0.225 A 
ATOM      6  O1  <0> d          -2.191   1.809   0.019  0.00  0.00    -0.273 OA
ATOM      7  H6  <0> d           1.631   2.006   0.903  0.00  0.00     0.065 H 
ATOM      8  H7  <0> d           1.613   2.016  -0.908  0.00  0.00     0.065 H 
ATOM      9  H8  <0> d           0.002  -0.004   0.002  0.00  0.00     0.162 HD
ENDROOT
BRANCH   1  10
ATOM     10  C2  <0> d          -0.128   3.937  -1.256  0.00  0.00     0.045 C 
ATOM     11  H1  <0> d          -0.338   3.292  -2.109  0.00  0.00     0.083 H 
BRANCH  10  12
ATOM     12  C1  <0> d          -1.239   4.980  -1.120  0.00  0.00    -0.051 C 
ATOM     13  H3  <0> d          -1.030   5.625  -0.267  0.00  0.00     0.030 H 
ATOM     14  H4  <0> d          -1.286   5.581  -2.027  0.00  0.00     0.030 H 
ATOM     15  H5  <0> d          -2.194   4.476  -0.968  0.00  0.00     0.030 H 
ENDBRANCH  10  12
BRANCH  10  16
ATOM     16  O2  <0> d           1.124   4.597  -1.454  0.00  0.00    -0.395 OA
ATOM     17  H9  <0> d           1.375   5.189  -0.732  0.00  0.00     0.210 HD
ENDBRANCH  10  16
ENDBRANCH   1  10
TORSDOF 3
