REMARK  4 active torsions:
REMARK  status: ('A' for Active; 'I' for Inactive)
REMARK    1  A    between atoms: C1_1  and  O1_2 
REMARK    2  A    between atoms: O1_2  and  C2_3 
REMARK    3  A    between atoms: C2_3  and  C3_5 
REMARK    4  A    between atoms: C3_5  and  C4_6 
ROOT
ATOM      1  C3  <0> d          -1.329   1.940   0.019  0.00  0.00     0.046 C 
ATOM      2  H4  <0> d          -1.391   2.561   0.913  0.00  0.00     0.056 H 
ATOM      3  H5  <0> d          -1.400   2.570  -0.867  0.00  0.00     0.056 H 
ENDROOT
BRANCH   1   4
ATOM      4  C2  <0> d          -0.014   1.204   0.009  0.00  0.00     0.263 C 
ATOM      5  O2  <0> d           0.002  -0.004   0.002  0.00  0.00    -0.265 OA
BRANCH   4   6
ATOM      6  O1  <0> d           1.139   1.891   0.001  0.00  0.00    -0.326 OA
BRANCH   6   7
ATOM      7  C1  <0> d           2.367   1.117  -0.015  0.00  0.00     0.013 C 
ATOM      8  H1  <0> d           2.392   0.493  -0.908  0.00  0.00     0.067 H 
ATOM      9  H2  <0> d           3.223   1.792  -0.019  0.00  0.00     0.067 H 
ATOM     10  H3  <0> d           2.409   0.484   0.872  0.00  0.00     0.067 H 
ENDBRANCH   6   7
ENDBRANCH   4   6
ENDBRANCH   1   4
BRANCH   1  11
ATOM     11  C4  <0> d          -2.462   0.945   0.019  0.00  0.00    -0.008 A 
ATOM     12  S1  <0> d          -3.312   0.210  -1.368  0.00  0.00    -0.106 SA
ATOM     13  C7  <0> d          -4.458  -0.806  -0.451  0.00  0.00    -0.045 A 
ATOM     14  C6  <0> d          -4.121  -0.522   0.831  0.00  0.00    -0.076 A 
ATOM     15  H8  <0> d          -5.222  -1.474  -0.821  0.00  0.00     0.095 H 
ATOM     16  C5  <0> d          -3.094   0.372   1.072  0.00  0.00    -0.069 A 
ATOM     17  H7  <0> d          -4.644  -0.990   1.652  0.00  0.00     0.084 H 
ATOM     18  H6  <0> d          -2.802   0.611   2.083  0.00  0.00     0.085 H 
ENDBRANCH   1  11
TORSDOF 4
