REMARK  2 active torsions:
REMARK  status: ('A' for Active; 'I' for Inactive)
REMARK    1  A    between atoms: C1_1  and  C2_2 
REMARK    2  A    between atoms: C2_2  and  C3_3 
ROOT
ATOM      1  C3  <0> d          -0.718   1.572   1.248  0.00  0.00    -0.054 A 
ATOM      2  C4  <0> d          -1.725   0.819   1.833  0.00  0.00    -0.060 A 
ATOM      3  C5  <0> d          -2.349   1.295   2.970  0.00  0.00     0.004 A 
ATOM      4  N1  <0> d          -1.999   2.452   3.498  0.00  0.00    -0.249 NA
ATOM      5  C6  <0> d          -1.046   3.195   2.969  0.00  0.00     0.126 A 
ATOM      6  C7  <0> d          -0.372   2.779   1.833  0.00  0.00    -0.038 A 
ATOM      7 Cl1  <0> d          -0.627   4.709   3.709  0.00  0.00    -0.062 Cl
ATOM      8  H6  <0> d          -2.018  -0.129   1.405  0.00  0.00     0.086 H 
ATOM      9  H7  <0> d          -3.134   0.714   3.431  0.00  0.00     0.114 H 
ATOM     10  H8  <0> d           0.410   3.389   1.407  0.00  0.00     0.089 H 
ENDROOT
BRANCH   1  11
ATOM     11  C2  <0> d          -0.013   1.086   0.008  0.00  0.00    -0.044 C 
ATOM     12  H4  <0> d           0.002  -0.014   0.002  0.00  0.00     0.039 H 
ATOM     13  H5  <0> d           1.019   1.466   0.000  0.00  0.00     0.039 H 
BRANCH  11  14
ATOM     14  C1  <0> d          -0.753   1.593  -1.232  0.00  0.00    -0.073 C 
ATOM     15  H1  <0> d          -0.238   1.238  -2.136  0.00  0.00     0.028 H 
ATOM     16  H2  <0> d          -0.768   2.693  -1.225  0.00  0.00     0.028 H 
ATOM     17  H3  <0> d          -1.785   1.212  -1.224  0.00  0.00     0.028 H 
ENDBRANCH  11  14
ENDBRANCH   1  11
TORSDOF 2
