REMARK  4 active torsions:
REMARK  status: ('A' for Active; 'I' for Inactive)
REMARK    1  A    between atoms: C1_1  and  O1_2 
REMARK    2  A    between atoms: O1_2  and  C2_3 
REMARK    3  A    between atoms: C2_3  and  C3_5 
REMARK    4  A    between atoms: C4_6  and  C5_7 
REMARK       I    between atoms: C5_7  and  N1_9 
ROOT
ATOM      1  C2  <0> d           3.455   3.277  -0.013  0.00  0.00     0.339 C 
ATOM      2  O2  <0> d           3.438   4.492  -0.007  0.00  0.00    -0.249 OA
ENDROOT
BRANCH   1   3
ATOM      3  O1  <0> d           4.631   2.620  -0.028  0.00  0.00    -0.316 OA
BRANCH   3   4
ATOM      4  C1  <0> d           5.838   3.427  -0.035  0.00  0.00     0.014 C 
ATOM      5  H1  <0> d           5.845   4.061  -0.922  0.00  0.00     0.067 H 
ATOM      6  H2  <0> d           5.862   4.051   0.858  0.00  0.00     0.067 H 
ATOM      7  H3  <0> d           6.711   2.775  -0.047  0.00  0.00     0.067 H 
ENDBRANCH   3   4
ENDBRANCH   1   3
BRANCH   1   8
ATOM      8  C3  <0> d           2.224   2.545  -0.005  0.00  0.00     0.013 C 
ATOM      9  C4  <0> d           1.216   1.944   0.001  0.00  0.00     0.005 C 
BRANCH   9  10
ATOM     10  C5  <0> d          -0.014   1.211   0.009  0.00  0.00     0.294 C 
ATOM     11  O3  <0> d           0.002  -0.004   0.002  0.00  0.00    -0.258 OA
ATOM     12  N1  <0> d          -1.191   1.869   0.018  0.00  0.00    -0.359 N 
ATOM     13  H4  <0> d          -2.024   1.373   0.019  0.00  0.00     0.160 HD
ATOM     14  H5  <0> d          -1.204   2.839   0.023  0.00  0.00     0.160 HD
ENDBRANCH   9  10
ENDBRANCH   1   8
TORSDOF 4
