REMARK  5 active torsions:
REMARK  status: ('A' for Active; 'I' for Inactive)
REMARK    1  A    between atoms: C1_1  and  C2_2 
REMARK    2  A    between atoms: C3_3  and  C10_10 
REMARK    3  A    between atoms: C4_4  and  C8_8 
REMARK    4  A    between atoms: C4_4  and  C9_9 
REMARK    5  A    between atoms: C10_10  and  O1_11 
ROOT
ATOM      1  C2  <0> d          -0.047   1.179  -0.220  0.00  0.00    -0.079 C 
ATOM      2  C3  <0> d           0.054  -0.091   0.008  0.00  0.00    -0.047 C 
ATOM      3  C4  <0> d           1.352  -0.798   0.269  0.00  0.00    -0.022 C 
ATOM      4  C5  <0> d           2.526   0.072  -0.185  0.00  0.00    -0.055 C 
ATOM      5  C6  <0> d           2.342   1.479   0.397  0.00  0.00    -0.061 C 
ATOM      6  C7  <0> d           1.121   2.120  -0.266  0.00  0.00    -0.044 C 
ATOM      7  H4  <0> d           3.461  -0.356   0.179  0.00  0.00     0.034 H 
ATOM      8  H5  <0> d           2.546   0.122  -1.274  0.00  0.00     0.034 H 
ATOM      9  H6  <0> d           2.181   1.412   1.473  0.00  0.00     0.033 H 
ATOM     10  H7  <0> d           3.228   2.079   0.192  0.00  0.00     0.033 H 
ATOM     11  H8  <0> d           1.355   2.355  -1.304  0.00  0.00     0.039 H 
ATOM     12  H9  <0> d           0.865   3.039   0.261  0.00  0.00     0.039 H 
ENDROOT
BRANCH   3  13
ATOM     13  C8  <0> d           1.482  -1.084   1.766  0.00  0.00    -0.066 C 
ATOM     14  H10 <0> d           0.653  -1.714   2.089  0.00  0.00     0.028 H 
ATOM     15  H11 <0> d           2.424  -1.597   1.958  0.00  0.00     0.028 H 
ATOM     16  H12 <0> d           1.461  -0.145   2.319  0.00  0.00     0.028 H 
ENDBRANCH   3  13
BRANCH   3  17
ATOM     17  C9  <0> d           1.375  -2.119  -0.503  0.00  0.00    -0.066 C 
ATOM     18  H13 <0> d           1.278  -1.918  -1.570  0.00  0.00     0.028 H 
ATOM     19  H14 <0> d           2.317  -2.634  -0.315  0.00  0.00     0.028 H 
ATOM     20  H15 <0> d           0.546  -2.746  -0.175  0.00  0.00     0.028 H 
ENDBRANCH   3  17
BRANCH   2  21
ATOM     21  C10 <0> d          -1.210  -0.912   0.011  0.00  0.00     0.038 C 
ATOM     22  H16 <0> d          -2.072  -0.251  -0.085  0.00  0.00     0.081 H 
ATOM     23  H17 <0> d          -1.192  -1.610  -0.825  0.00  0.00     0.081 H 
BRANCH  21  24
ATOM     24  O1  <0> d          -1.302  -1.639   1.238  0.00  0.00    -0.397 OA
ATOM     25  H18 <0> d          -2.094  -2.191   1.309  0.00  0.00     0.209 HD
ENDBRANCH  21  24
ENDBRANCH   2  21
BRANCH   1  26
ATOM     26  C1  <0> d          -1.422   1.746  -0.461  0.00  0.00    -0.054 C 
ATOM     27  H1  <0> d          -1.899   1.961   0.495  0.00  0.00     0.033 H 
ATOM     28  H2  <0> d          -1.339   2.665  -1.041  0.00  0.00     0.033 H 
ATOM     29  H3  <0> d          -2.022   1.022  -1.012  0.00  0.00     0.033 H 
ENDBRANCH   1  26
TORSDOF 5
