REMARK  3 active torsions:
REMARK  status: ('A' for Active; 'I' for Inactive)
REMARK    1  A    between atoms: C1_1  and  C2_2 
REMARK    2  A    between atoms: C2_2  and  C6_8 
REMARK    3  A    between atoms: C4_4  and  C5_6 
ROOT
ATOM      1  C2  <0> d          -0.729   1.579   1.267  0.00  0.00    -0.034 A 
ATOM      2  C3  <0> d          -0.008   2.619   2.128  0.00  0.00    -0.045 A 
ATOM      3  C4  <0> d          -0.139   1.175   2.619  0.00  0.00     0.038 A 
ATOM      4  H1  <0> d          -0.836   0.983   3.435  0.00  0.00     0.057 H 
ATOM      5  H5  <0> d           0.976   2.951   1.798  0.00  0.00     0.035 H 
ATOM      6  H6  <0> d          -0.619   3.375   2.620  0.00  0.00     0.035 H 
ENDROOT
BRANCH   1   7
ATOM      7  C1  <0> d          -0.013   1.086   0.008  0.00  0.00    -0.068 C 
ATOM      8  H2  <0> d           0.002  -0.004   0.002  0.00  0.00     0.028 H 
ATOM      9  H3  <0> d           1.010   1.463   0.000  0.00  0.00     0.028 H 
ATOM     10  H4  <0> d          -0.540   1.447  -0.875  0.00  0.00     0.028 H 
ENDBRANCH   1   7
BRANCH   1  11
ATOM     11  C6  <0> d          -2.252   1.681   1.163  0.00  0.00    -0.068 C 
ATOM     12  H7  <0> d          -2.697   0.713   1.392  0.00  0.00     0.028 H 
ATOM     13  H8  <0> d          -2.616   2.425   1.871  0.00  0.00     0.028 H 
ATOM     14  H9  <0> d          -2.528   1.977   0.150  0.00  0.00     0.028 H 
ENDBRANCH   1  11
BRANCH   3  15
ATOM     15  C5  <0> d           1.103   0.322   2.610  0.00  0.00     0.177 C 
ATOM     16  O1  <0> d           1.595  -0.018   1.560  0.00  0.00    -0.648 OA
ATOM     17  O2  <0> d           1.663  -0.061   3.768  0.00  0.00    -0.648 OA
ENDBRANCH   3  15
TORSDOF 3
