REMARK  5 active torsions:
REMARK  status: ('A' for Active; 'I' for Inactive)
REMARK    1  A    between atoms: C1_1  and  C2_2 
REMARK    2  A    between atoms: C2_2  and  O1_3 
REMARK    3  A    between atoms: O1_3  and  C3_4 
REMARK    4  A    between atoms: C3_4  and  C4_6 
REMARK    5  A    between atoms: C6_10  and  C7_11 
ROOT
ATOM      1  C4  <0> d          -0.800   1.631   3.642  0.00  0.00     0.090 A 
ATOM      2  C5  <0> d          -2.000   2.463   3.820  0.00  0.00     0.047 A 
ATOM      3  N1  <0> d          -2.159   2.568   5.106  0.00  0.00    -0.140 NA
ATOM      4  O3  <0> d          -1.304   1.980   5.722  0.00  0.00    -0.217 OA
ATOM      5  C6  <0> d          -0.416   1.369   4.935  0.00  0.00     0.092 A 
ATOM      6  H6  <0> d          -2.619   2.895   3.046  0.00  0.00     0.119 H 
ENDROOT
BRANCH   1   7
ATOM      7  C3  <0> d          -0.164   1.193   2.389  0.00  0.00     0.297 C 
ATOM      8  O2  <0> d           0.837   0.505   2.423  0.00  0.00    -0.259 OA
BRANCH   7   9
ATOM      9  O1  <0> d          -0.692   1.554   1.203  0.00  0.00    -0.318 OA
BRANCH   9  10
ATOM     10  C2  <0> d          -0.013   1.086   0.008  0.00  0.00     0.026 C 
ATOM     11  H4  <0> d           0.002  -0.004   0.002  0.00  0.00     0.074 H 
ATOM     12  H5  <0> d           1.010   1.463   0.000  0.00  0.00     0.074 H 
BRANCH  10  13
ATOM     13  C1  <0> d          -0.753   1.593  -1.232  0.00  0.00    -0.056 C 
ATOM     14  H1  <0> d          -1.775   1.215  -1.224  0.00  0.00     0.030 H 
ATOM     15  H2  <0> d          -0.767   2.683  -1.226  0.00  0.00     0.030 H 
ATOM     16  H3  <0> d          -0.242   1.241  -2.128  0.00  0.00     0.030 H 
ENDBRANCH  10  13
ENDBRANCH   9  10
ENDBRANCH   7   9
ENDBRANCH   1   7
BRANCH   5  17
ATOM     17  C7  <0> d           0.771   0.552   5.377  0.00  0.00    -0.028 C 
ATOM     18  H7  <0> d           1.640   1.202   5.482  0.00  0.00     0.036 H 
ATOM     19  H8  <0> d           0.552   0.081   6.335  0.00  0.00     0.036 H 
ATOM     20  H9  <0> d           0.981  -0.217   4.634  0.00  0.00     0.036 H 
ENDBRANCH   5  17
TORSDOF 5
