REMARK  2 active torsions:
REMARK  status: ('A' for Active; 'I' for Inactive)
REMARK    1  A    between atoms: C2_2  and  C3_3 
REMARK    2  A    between atoms: C3_3  and  C5_7 
ROOT
ATOM      1  C3  <0> d          -1.293  -0.775   0.010  0.00  0.00     0.071 C 
ATOM      2  H1  <0> d          -2.131  -0.078   0.022  0.00  0.00     0.076 H 
ATOM      3  C4  <0> d          -1.371  -1.616  -1.196  0.00  0.00     0.072 C 
ATOM      4  N1  <0> d          -1.431  -2.265  -2.126  0.00  0.00    -0.196 NA
ENDROOT
BRANCH   1   5
ATOM      5  C2  <0> d           0.002  -0.004   0.002  0.00  0.00    -0.091 C 
ATOM      6  C1  <0> d          -0.016   1.306   0.009  0.00  0.00    -0.123 C 
ATOM      7  H2  <0> d           0.912   1.859   0.003  0.00  0.00     0.066 H 
ATOM      8  H3  <0> d          -0.958   1.833   0.017  0.00  0.00     0.066 H 
ATOM      9  H4  <0> d           0.945  -0.531  -0.010  0.00  0.00     0.078 H 
ENDBRANCH   1   5
BRANCH   1  10
ATOM     10  C5  <0> d          -1.349  -1.649   1.237  0.00  0.00    -0.037 A 
ATOM     11  C10 <0> d          -2.367  -1.484   2.157  0.00  0.00    -0.075 A 
ATOM     12  C9  <0> d          -2.421  -2.288   3.280  0.00  0.00    -0.082 A 
ATOM     13  H9  <0> d          -3.122  -0.728   1.998  0.00  0.00     0.084 H 
ATOM     14  C8  <0> d          -1.452  -3.252   3.487  0.00  0.00    -0.083 A 
ATOM     15  H8  <0> d          -3.219  -2.162   3.997  0.00  0.00     0.083 H 
ATOM     16  C7  <0> d          -0.431  -3.414   2.569  0.00  0.00    -0.082 A 
ATOM     17  H7  <0> d          -1.493  -3.879   4.365  0.00  0.00     0.083 H 
ATOM     18  C6  <0> d          -0.380  -2.613   1.444  0.00  0.00    -0.075 A 
ATOM     19  H6  <0> d           0.326  -4.168   2.730  0.00  0.00     0.083 H 
ATOM     20  H5  <0> d           0.418  -2.739   0.727  0.00  0.00     0.084 H 
ENDBRANCH   1  10
TORSDOF 2
