REMARK  4 active torsions:
REMARK  status: ('A' for Active; 'I' for Inactive)
REMARK    1  A    between atoms: C1_1  and  C2_2 
REMARK    2  A    between atoms: C2_2  and  C3_3 
REMARK    3  A    between atoms: C6_7  and  C8_9 
REMARK    4  A    between atoms: C6_7  and  O3_12 
ROOT
ATOM      1  C3  <0> d           0.718  -0.497  -1.257  0.00  0.00    -0.051 C 
ATOM      2  H1  <0> d           1.707  -0.044  -1.325  0.00  0.00     0.040 H 
ATOM      3  C4  <0> d          -0.112  -0.146  -2.509  0.00  0.00    -0.058 C 
ATOM      4  C5  <0> d           0.083  -1.363  -3.447  0.00  0.00    -0.026 C 
ATOM      5  C6  <0> d           0.081  -2.558  -2.462  0.00  0.00     0.146 C 
ATOM      6  C7  <0> d           0.842  -2.031  -1.226  0.00  0.00    -0.023 C 
ATOM      7  H7  <0> d          -1.164  -0.029  -2.249  0.00  0.00     0.033 H 
ATOM      8  H8  <0> d           0.270   0.761  -2.977  0.00  0.00     0.033 H 
ATOM      9  H9  <0> d          -0.745  -1.443  -4.152  0.00  0.00     0.038 H 
ATOM     10  H10 <0> d           1.035  -1.297  -3.973  0.00  0.00     0.038 H 
ATOM     11  H11 <0> d           1.891  -2.322  -1.280  0.00  0.00     0.038 H 
ATOM     12  H12 <0> d           0.391  -2.424  -0.314  0.00  0.00     0.038 H 
ENDROOT
BRANCH   1  13
ATOM     13  C2  <0> d           0.002  -0.004   0.002  0.00  0.00    -0.065 C 
ATOM     14  H5  <0> d           0.529  -0.365   0.885  0.00  0.00     0.033 H 
ATOM     15  H6  <0> d          -1.020  -0.381   0.010  0.00  0.00     0.033 H 
BRANCH  13  16
ATOM     16  C1  <0> d          -0.019   1.526   0.010  0.00  0.00    -0.076 C 
ATOM     17  H2  <0> d           1.004   1.903   0.003  0.00  0.00     0.027 H 
ATOM     18  H3  <0> d          -0.546   1.887  -0.873  0.00  0.00     0.027 H 
ATOM     19  H4  <0> d          -0.529   1.877   0.907  0.00  0.00     0.027 H 
ENDBRANCH  13  16
ENDBRANCH   1  13
BRANCH   5  20
ATOM     20  C8  <0> d           0.803  -3.737  -3.061  0.00  0.00     0.209 C 
ATOM     21  O1  <0> d           1.968  -3.629  -3.404  0.00  0.00    -0.646 OA
ATOM     22  O2  <0> d           0.222  -4.800  -3.204  0.00  0.00    -0.646 OA
ENDBRANCH   5  20
BRANCH   5  23
ATOM     23  O3  <0> d          -1.258  -2.915  -2.111  0.00  0.00    -0.379 OA
ATOM     24  H13 <0> d          -1.798  -3.199  -2.860  0.00  0.00     0.211 HD
ENDBRANCH   5  23
TORSDOF 4
