REMARK  3 active torsions:
REMARK  status: ('A' for Active; 'I' for Inactive)
REMARK    1  A    between atoms: C1_1  and  C2_2 
REMARK    2  A    between atoms: C4_4  and  C6_10 
REMARK    3  A    between atoms: C5_6  and  O1_9 
ROOT
ATOM      1  C2  <0> d           0.002  -0.004   0.002  0.00  0.00     0.006 C 
ATOM      2  C3  <0> d           0.006  -0.694  -1.160  0.00  0.00    -0.039 C 
ATOM      3  C4  <0> d          -0.003  -2.107  -1.131  0.00  0.00     0.031 C 
ATOM      4  N1  <0> d          -0.277  -2.756  -0.042  0.00  0.00    -0.243 NA
ATOM      5  C5  <0> d          -0.620  -2.044   1.192  0.00  0.00     0.192 C 
ATOM      6  H1  <0> d          -0.263  -2.611   2.052  0.00  0.00     0.157 H 
ATOM      7  N2  <0> d           0.023  -0.721   1.179  0.00  0.00    -0.350 N 
ATOM      8  H5  <0> d           0.016  -0.170  -2.104  0.00  0.00     0.089 H 
ATOM      9  H6  <0> d           0.447  -0.361   1.974  0.00  0.00     0.163 HD
ENDROOT
BRANCH   1  10
ATOM     10  C1  <0> d          -0.018   1.503   0.010  0.00  0.00    -0.038 C 
ATOM     11  H2  <0> d           1.004   1.880   0.003  0.00  0.00     0.035 H 
ATOM     12  H3  <0> d          -0.545   1.864  -0.873  0.00  0.00     0.035 H 
ATOM     13  H4  <0> d          -0.529   1.854   0.907  0.00  0.00     0.035 H 
ENDBRANCH   1  10
BRANCH   5  14
ATOM     14  O1  <0> d          -2.038  -1.891   1.277  0.00  0.00    -0.358 OA
ATOM     15  H7  <0> d          -2.524  -2.727   1.286  0.00  0.00     0.214 HD
ENDBRANCH   5  14
BRANCH   3  16
ATOM     16  C6  <0> d           0.311  -2.874  -2.389  0.00  0.00    -0.036 C 
ATOM     17  H8  <0> d           1.383  -3.061  -2.443  0.00  0.00     0.035 H 
ATOM     18  H9  <0> d          -0.223  -3.825  -2.378  0.00  0.00     0.035 H 
ATOM     19  H10 <0> d          -0.001  -2.293  -3.257  0.00  0.00     0.035 H 
ENDBRANCH   3  16
TORSDOF 3
