REMARK  3 active torsions:
REMARK  status: ('A' for Active; 'I' for Inactive)
REMARK    1  A    between atoms: C1_1  and  O1_2 
REMARK    2  A    between atoms: O1_2  and  C2_3 
REMARK    3  A    between atoms: C6_7  and  N2_11 
ROOT
ATOM      1  C2  <0> d           1.184   2.151   0.002  0.00  0.00     0.091 A 
ATOM      2  C3  <0> d           1.154   3.535   0.010  0.00  0.00    -0.049 A 
ATOM      3  C4  <0> d          -0.055   4.207   0.025  0.00  0.00    -0.078 A 
ATOM      4  C5  <0> d          -1.246   3.506   0.033  0.00  0.00    -0.056 A 
ATOM      5  C6  <0> d          -1.240   2.119   0.019  0.00  0.00     0.049 A 
ATOM      6  C7  <0> d          -0.017   1.428   0.010  0.00  0.00     0.104 A 
ATOM      7  C8  <0> d           0.002  -0.004   0.002  0.00  0.00     0.104 C 
ATOM      8  N1  <0> d           0.018  -1.140  -0.004  0.00  0.00    -0.191 NA
ATOM      9  H4  <0> d           2.079   4.093   0.005  0.00  0.00     0.087 H 
ATOM     10  H5  <0> d          -0.068   5.287   0.032  0.00  0.00     0.083 H 
ATOM     11  H6  <0> d          -2.184   4.040   0.045  0.00  0.00     0.087 H 
ENDROOT
BRANCH   1  12
ATOM     12  O1  <0> d           2.373   1.496  -0.012  0.00  0.00    -0.354 OA
BRANCH  12  13
ATOM     13  C1  <0> d           3.555   2.297  -0.019  0.00  0.00     0.010 C 
ATOM     14  H1  <0> d           4.441   1.645  -0.031  0.00  0.00     0.066 H 
ATOM     15  H2  <0> d           3.576   2.928   0.882  0.00  0.00     0.066 H 
ATOM     16  H3  <0> d           3.560   2.937  -0.914  0.00  0.00     0.066 H 
ENDBRANCH  12  13
ENDBRANCH   1  12
BRANCH   5  17
ATOM     17  N2  <0> d          -2.439   1.415   0.021  0.00  0.00    -0.398 N 
ATOM     18  H7  <0> d          -2.432   0.315   0.011  0.00  0.00     0.156 HD
ATOM     19  H8  <0> d          -3.396   1.959   0.033  0.00  0.00     0.156 HD
ENDBRANCH   5  17
TORSDOF 3
