REMARK  5 active torsions:
REMARK  status: ('A' for Active; 'I' for Inactive)
REMARK    1  A    between atoms: C1_1  and  C2_2 
REMARK    2  A    between atoms: C2_2  and  C3_3 
REMARK    3  A    between atoms: C2_2  and  C4_4 
REMARK       I    between atoms: C4_4  and  N1_6 
REMARK    4  A    between atoms: N1_6  and  C5_7 
REMARK    5  A    between atoms: C5_7  and  C6_8 
ROOT
ATOM      1  C2  <0> d           2.462   0.920  -0.017  0.00  0.00     0.017 C 
ATOM      2  H4  <0> d           2.520   0.299  -0.910  0.00  0.00     0.053 H 
ENDROOT
BRANCH   1   3
ATOM      3  C1  <0> d           3.611   1.930  -0.022  0.00  0.00    -0.065 C 
ATOM      4  H1  <0> d           3.554   2.551   0.872  0.00  0.00     0.028 H 
ATOM      5  H2  <0> d           4.562   1.398  -0.034  0.00  0.00     0.028 H 
ATOM      6  H3  <0> d           3.537   2.560  -0.908  0.00  0.00     0.028 H 
ENDBRANCH   1   3
BRANCH   1   7
ATOM      7  C3  <0> d           2.567   0.035   1.227  0.00  0.00    -0.065 C 
ATOM      8  H5  <0> d           3.518  -0.497   1.215  0.00  0.00     0.028 H 
ATOM      9  H6  <0> d           2.509   0.656   2.121  0.00  0.00     0.028 H 
ATOM     10  H7  <0> d           1.748  -0.685   1.231  0.00  0.00     0.028 H 
ENDBRANCH   1   7
BRANCH   1  11
ATOM     11  C4  <0> d           1.147   1.655  -0.000  0.00  0.00     0.221 C 
ATOM     12  O1  <0> d           1.130   2.868   0.007  0.00  0.00    -0.273 OA
ATOM     13  N1  <0> d          -0.011   0.966   0.007  0.00  0.00    -0.351 N 
ATOM     14  H8  <0> d           0.002  -0.004   0.002  0.00  0.00     0.163 HD
BRANCH  13  15
ATOM     15  C5  <0> d          -1.290   1.681   0.017  0.00  0.00     0.075 C 
ATOM     16  H9  <0> d          -1.352   2.302   0.911  0.00  0.00     0.080 H 
ATOM     17  H10 <0> d          -1.360   2.312  -0.869  0.00  0.00     0.080 H 
BRANCH  15  18
ATOM     18  C6  <0> d          -2.422   0.686   0.017  0.00  0.00     0.191 C 
ATOM     19  O2  <0> d          -2.185  -0.498   0.010  0.00  0.00    -0.647 OA
ATOM     20  O3  <0> d          -3.693   1.116   0.026  0.00  0.00    -0.647 OA
ENDBRANCH  15  18
ENDBRANCH  13  15
ENDBRANCH   1  11
TORSDOF 5
