REMARK  1 active torsions:
REMARK  status: ('A' for Active; 'I' for Inactive)
REMARK    1  A    between atoms: C1_1  and  C2_2 
ROOT
ATOM      1  C2  <0> d           1.169   3.188   0.008  0.00  0.00    -0.040 A 
ATOM      2  C3  <0> d          -0.033   3.860   0.022  0.00  0.00    -0.056 A 
ATOM      3  C4  <0> d          -1.233   3.145   0.030  0.00  0.00     0.045 A 
ATOM      4  C5  <0> d          -1.214   1.748   0.017  0.00  0.00    -0.061 A 
ATOM      5  C6  <0> d          -0.013   1.076   0.008  0.00  0.00    -0.061 A 
ATOM      6  C7  <0> d           1.188   1.791   0.000  0.00  0.00     0.050 A 
ATOM      7  C8  <0> d           2.438   1.092  -0.015  0.00  0.00     0.100 C 
ATOM      8  N1  <0> d           3.429   0.537  -0.028  0.00  0.00    -0.191 NA
ATOM      9  C9  <0> d          -2.482   3.844   0.045  0.00  0.00     0.099 C 
ATOM     10  N2  <0> d          -3.474   4.399   0.057  0.00  0.00    -0.191 NA
ATOM     11  H4  <0> d          -0.047   4.940   0.027  0.00  0.00     0.086 H 
ATOM     12  H5  <0> d          -2.142   1.195   0.019  0.00  0.00     0.085 H 
ATOM     13  H6  <0> d           0.002  -0.004   0.002  0.00  0.00     0.085 H 
ENDROOT
BRANCH   1  14
ATOM     14  C1  <0> d           2.464   3.959  -0.000  0.00  0.00    -0.050 C 
ATOM     15  H1  <0> d           2.248   5.038   0.007  0.00  0.00     0.033 H 
ATOM     16  H2  <0> d           3.036   3.706  -0.905  0.00  0.00     0.033 H 
ATOM     17  H3  <0> d           3.052   3.696   0.891  0.00  0.00     0.033 H 
ENDBRANCH   1  14
TORSDOF 1
