REMARK  0 active torsions:
REMARK  status: ('A' for Active; 'I' for Inactive)
ROOT
ATOM      1  C1  <0> d          -0.016   1.351   0.009  0.00  0.00    -0.049 A 
ATOM      2  C2  <0> d           1.197   2.055   0.002  0.00  0.00     0.022 A 
ATOM      3  N1  <0> d           2.339   1.409  -0.013  0.00  0.00    -0.074 NA
ATOM      4  C3  <0> d           2.373   0.069  -0.021  0.00  0.00     0.733 A 
ATOM      5  N2  <0> d           3.380  -0.792  -0.035  0.00  0.00    -0.071 NA
ATOM      6  C4  <0> d           2.895  -2.038  -0.037  0.00  0.00     0.059 A 
ATOM      7  C5  <0> d           1.546  -1.976  -0.024  0.00  0.00     0.144 A 
ATOM      8  N3  <0> d           1.204  -0.651  -0.013  0.00  0.00    -0.142 N 
ATOM      9  C6  <0> d           0.002  -0.004   0.002  0.00  0.00     0.005 A 
ATOM     10 Cl1  <0> d           0.451  -3.323  -0.021  0.00  0.00    -0.062 Cl
ATOM     11  H1  <0> d          -0.956   1.884   0.026  0.00  0.00     0.087 H 
ATOM     12  H2  <0> d           1.191   3.135   0.007  0.00  0.00     0.115 H 
ATOM     13  H3  <0> d           3.484  -2.943  -0.048  0.00  0.00     0.120 H 
ATOM     14  H4  <0> d          -0.921  -0.564   0.008  0.00  0.00     0.113 H 
ENDROOT
TORSDOF 0
