REMARK  1 active torsions:
REMARK  status: ('A' for Active; 'I' for Inactive)
REMARK    1  A    between atoms: C2_2  and  C5_8 
ROOT
ATOM      1  C1  <0> d           1.109   3.071   0.008  0.00  0.00     0.034 A 
ATOM      2  C2  <0> d          -0.104   3.756   0.023  0.00  0.00     0.129 A 
ATOM      3  N1  <0> d          -1.249   3.077   0.030  0.00  0.00    -0.327 N 
ATOM      4  C3  <0> d          -1.230   1.755   0.017  0.00  0.00     0.197 A 
ATOM      5  C4  <0> d          -0.013   1.076   0.008  0.00  0.00     0.054 A 
ATOM      6  N2  <0> d           1.122   1.750   0.001  0.00  0.00    -0.266 NA
ATOM      7  O1  <0> d          -2.395   1.060   0.019  0.00  0.00    -0.171 OA
ATOM      8  H1  <0> d           2.039   3.621   0.002  0.00  0.00     0.118 H 
ATOM      9  H2  <0> d           0.002  -0.004   0.002  0.00  0.00     0.121 H 
ATOM     10  H3  <0> d          -2.208   3.615   0.047  0.00  0.00     0.168 HD
ENDROOT
BRANCH   2  11
ATOM     11  C5  <0> d          -0.120   5.237   0.031  0.00  0.00     0.228 C 
ATOM     12  O2  <0> d           0.925   5.855   0.025  0.00  0.00    -0.643 OA
ATOM     13  O3  <0> d          -1.294   5.897   0.045  0.00  0.00    -0.643 OA
ENDBRANCH   2  11
TORSDOF 1
