REMARK  4 active torsions:
REMARK  status: ('A' for Active; 'I' for Inactive)
REMARK    1  A    between atoms: C1_1  and  C2_2 
REMARK    2  A    between atoms: C4_4  and  C8_9 
REMARK    3  A    between atoms: C7_7  and  O1_8 
REMARK    4  A    between atoms: C8_9  and  C9_11 
ROOT
ATOM      1  C2  <0> d           1.173   3.175   0.002  0.00  0.00    -0.028 A 
ATOM      2  C3  <0> d          -0.024   3.854   0.015  0.00  0.00    -0.061 A 
ATOM      3  C4  <0> d          -1.228   3.140   0.032  0.00  0.00     0.010 A 
ATOM      4  C5  <0> d          -1.206   1.740   0.030  0.00  0.00    -0.067 A 
ATOM      5  C6  <0> d          -0.013   1.075   0.022  0.00  0.00    -0.050 A 
ATOM      6  C7  <0> d           1.184   1.785   0.006  0.00  0.00     0.071 A 
ATOM      7  H4  <0> d          -0.034   4.934   0.012  0.00  0.00     0.085 H 
ATOM      8  H5  <0> d          -2.133   1.185   0.039  0.00  0.00     0.085 H 
ATOM      9  H6  <0> d           0.002  -0.004   0.025  0.00  0.00     0.087 H 
ENDROOT
BRANCH   3  10
ATOM     10  C8  <0> d          -2.510   3.857   0.046  0.00  0.00     0.155 C 
ATOM     11  O2  <0> d          -3.551   3.240  -0.041  0.00  0.00    -0.293 OA
BRANCH  10  12
ATOM     12  C9  <0> d          -2.532   5.359   0.168  0.00  0.00    -0.017 C 
ATOM     13  H8  <0> d          -1.596   5.709   0.145  0.00  0.00     0.038 H 
ATOM     14  H9  <0> d          -3.099   5.782  -0.661  0.00  0.00     0.038 H 
ATOM     15  H10 <0> d          -3.002   5.640   1.110  0.00  0.00     0.038 H 
ENDBRANCH  10  12
ENDBRANCH   3  10
BRANCH   1  16
ATOM     16  C1  <0> d           2.473   3.938  -0.015  0.00  0.00    -0.049 C 
ATOM     17  H1  <0> d           2.774   4.120  -1.047  0.00  0.00     0.033 H 
ATOM     18  H2  <0> d           2.341   4.891   0.497  0.00  0.00     0.033 H 
ATOM     19  H3  <0> d           3.243   3.357   0.491  0.00  0.00     0.033 H 
ENDBRANCH   1  16
BRANCH   6  20
ATOM     20  O1  <0> d           2.365   1.117  -0.007  0.00  0.00    -0.360 OA
ATOM     21  H7  <0> d           2.696   0.922  -0.894  0.00  0.00     0.217 HD
ENDBRANCH   6  20
TORSDOF 4
