REMARK  3 active torsions:
REMARK  status: ('A' for Active; 'I' for Inactive)
REMARK    1  A    between atoms: C1_1  and  C2_2 
REMARK    2  A    between atoms: C2_2  and  C3_3 
REMARK    3  A    between atoms: C3_3  and  N1_4 
REMARK       I    between atoms: N1_4  and  C4_5 
REMARK       I    between atoms: C4_5  and  N2_7 
ROOT
ATOM      1  C3  <0> d           2.422   1.186  -0.015  0.00  0.00    -0.004 C 
ATOM      2  H6  <0> d           2.497   0.556   0.871  0.00  0.00     0.064 H 
ATOM      3  H7  <0> d           2.480   0.565  -0.909  0.00  0.00     0.064 H 
ENDROOT
BRANCH   1   4
ATOM      4  C2  <0> d           3.571   2.196  -0.020  0.00  0.00    -0.053 C 
ATOM      5  H4  <0> d           3.497   2.827  -0.906  0.00  0.00     0.034 H 
ATOM      6  H5  <0> d           3.514   2.817   0.874  0.00  0.00     0.034 H 
BRANCH   4   7
ATOM      7  C1  <0> d           4.907   1.449  -0.037  0.00  0.00    -0.075 C 
ATOM      8  H1  <0> d           4.981   0.819   0.849  0.00  0.00     0.027 H 
ATOM      9  H2  <0> d           4.964   0.828  -0.931  0.00  0.00     0.027 H 
ATOM     10  H3  <0> d           5.725   2.169  -0.041  0.00  0.00     0.027 H 
ENDBRANCH   4   7
ENDBRANCH   1   4
BRANCH   1  11
ATOM     11  N1  <0> d           1.143   1.901   0.001  0.00  0.00    -0.343 N 
ATOM     12  C4  <0> d          -0.014   1.212   0.009  0.00  0.00     0.313 C 
ATOM     13  O1  <0> d           0.002  -0.004   0.002  0.00  0.00    -0.248 OA
ATOM     14  N2  <0> d          -1.191   1.870   0.018  0.00  0.00    -0.352 N 
ATOM     15  H9  <0> d          -2.024   1.373   0.019  0.00  0.00     0.160 HD
ATOM     16  H10 <0> d          -1.204   2.840   0.023  0.00  0.00     0.160 HD
ATOM     17  H8  <0> d           1.130   2.871   0.007  0.00  0.00     0.164 HD
ENDBRANCH   1  11
TORSDOF 3
