REMARK  3 active torsions:
REMARK  status: ('A' for Active; 'I' for Inactive)
REMARK    1  A    between atoms: C1_1  and  C2_2 
REMARK    2  A    between atoms: C3_3  and  C5_8 
REMARK    3  A    between atoms: C4_4  and  N2_7 
REMARK       I    between atoms: C5_8  and  N3_10 
ROOT
ATOM      1  C2  <0> d          -0.718   1.572   1.248  0.00  0.00     0.078 A 
ATOM      2  C3  <0> d          -2.111   1.842   1.388  0.00  0.00     0.111 A 
ATOM      3  C4  <0> d          -2.223   2.255   2.720  0.00  0.00     0.184 A 
ATOM      4  O1  <0> d          -0.980   2.208   3.219  0.00  0.00    -0.194 OA
ATOM      5  N1  <0> d          -0.177   1.833   2.399  0.00  0.00    -0.130 NA
ENDROOT
BRANCH   2   6
ATOM      6  C5  <0> d          -3.169   1.716   0.380  0.00  0.00     0.255 C 
ATOM      7  O2  <0> d          -3.772   0.666   0.259  0.00  0.00    -0.268 OA
ATOM      8  N3  <0> d          -3.474   2.763  -0.412  0.00  0.00    -0.366 N 
ATOM      9  H6  <0> d          -2.993   3.600  -0.315  0.00  0.00     0.159 HD
ATOM     10  H7  <0> d          -4.174   2.680  -1.078  0.00  0.00     0.159 HD
ENDBRANCH   2   6
BRANCH   1  11
ATOM     11  C1  <0> d          -0.013   1.086   0.008  0.00  0.00    -0.032 C 
ATOM     12  H1  <0> d           0.002  -0.004   0.002  0.00  0.00     0.035 H 
ATOM     13  H2  <0> d           1.010   1.463   0.000  0.00  0.00     0.035 H 
ATOM     14  H3  <0> d          -0.540   1.447  -0.875  0.00  0.00     0.035 H 
ENDBRANCH   1  11
BRANCH   3  15
ATOM     15  N2  <0> d          -3.366   2.635   3.376  0.00  0.00    -0.377 N 
ATOM     16  H4  <0> d          -3.323   2.908   4.305  0.00  0.00     0.158 HD
ATOM     17  H5  <0> d          -4.216   2.630   2.910  0.00  0.00     0.158 HD
ENDBRANCH   3  15
TORSDOF 3
