REMARK  2 active torsions:
REMARK  status: ('A' for Active; 'I' for Inactive)
REMARK    1  A    between atoms: C1_1  and  C2_2 
REMARK    2  A    between atoms: C5_6  and  N3_10 
ROOT
ATOM      1  C2  <0> d          -0.017   1.380   0.010  0.00  0.00    -0.036 A 
ATOM      2  C3  <0> d           0.002  -0.004   0.002  0.00  0.00    -0.059 A 
ATOM      3  C4  <0> d           1.215  -0.669  -0.013  0.00  0.00     0.005 A 
ATOM      4  N1  <0> d           2.357  -0.008  -0.021  0.00  0.00    -0.242 NA
ATOM      5  C5  <0> d           2.397   1.315  -0.014  0.00  0.00     0.142 A 
ATOM      6  C6  <0> d           1.205   2.061   0.002  0.00  0.00     0.096 A 
ATOM      7  C7  <0> d           1.242   3.493   0.009  0.00  0.00     0.104 C 
ATOM      8  N2  <0> d           1.271   4.628   0.016  0.00  0.00    -0.191 NA
ATOM      9  H4  <0> d          -0.923  -0.561   0.007  0.00  0.00     0.086 H 
ATOM     10  H5  <0> d           1.227  -1.749  -0.019  0.00  0.00     0.114 H 
ENDROOT
BRANCH   1  11
ATOM     11  C1  <0> d          -1.321   2.134   0.020  0.00  0.00    -0.050 C 
ATOM     12  H1  <0> d          -2.158   1.420   0.025  0.00  0.00     0.033 H 
ATOM     13  H2  <0> d          -1.385   2.768  -0.877  0.00  0.00     0.033 H 
ATOM     14  H3  <0> d          -1.373   2.766   0.919  0.00  0.00     0.033 H 
ENDBRANCH   1  11
BRANCH   5  15
ATOM     15  N3  <0> d           3.617   1.967  -0.023  0.00  0.00    -0.383 N 
ATOM     16  H6  <0> d           3.654   3.066  -0.017  0.00  0.00     0.157 HD
ATOM     17  H7  <0> d           4.551   1.385  -0.035  0.00  0.00     0.157 HD
ENDBRANCH   5  15
TORSDOF 2
