REMARK  8 active torsions:
REMARK  status: ('A' for Active; 'I' for Inactive)
REMARK    1  A    between atoms: C1_1  and  C2_2 
REMARK    2  A    between atoms: C2_2  and  C3_3 
REMARK    3  A    between atoms: C3_3  and  C4_4 
REMARK    4  A    between atoms: C3_3  and  C5_5 
REMARK    5  A    between atoms: C3_3  and  C6_6 
REMARK    6  A    between atoms: C6_6  and  C7_7 
REMARK    7  A    between atoms: C7_7  and  O2_9 
REMARK    8  A    between atoms: O2_9  and  C8_10 
ROOT
ATOM      1  C3  <0> d          -2.479   0.930   0.019  0.00  0.00    -0.039 C 
ENDROOT
BRANCH   1   2
ATOM      2  C2  <0> d          -3.814   1.677   0.029  0.00  0.00    -0.062 C 
ATOM      3  H4  <0> d          -3.876   2.298   0.923  0.00  0.00     0.033 H 
ATOM      4  H5  <0> d          -3.885   2.307  -0.857  0.00  0.00     0.033 H 
BRANCH   2   5
ATOM      5  C1  <0> d          -4.963   0.667   0.029  0.00  0.00    -0.076 C 
ATOM      6  H1  <0> d          -4.901   0.046  -0.865  0.00  0.00     0.027 H 
ATOM      7  H2  <0> d          -4.893   0.036   0.915  0.00  0.00     0.027 H 
ATOM      8  H3  <0> d          -5.915   1.199   0.037  0.00  0.00     0.027 H 
ENDBRANCH   2   5
ENDBRANCH   1   2
BRANCH   1   9
ATOM      9  C4  <0> d          -2.392   0.058  -1.236  0.00  0.00    -0.069 C 
ATOM     10  H6  <0> d          -1.440  -0.474  -1.243  0.00  0.00     0.028 H 
ATOM     11  H7  <0> d          -3.211  -0.661  -1.236  0.00  0.00     0.028 H 
ATOM     12  H8  <0> d          -2.462   0.689  -2.122  0.00  0.00     0.028 H 
ENDBRANCH   1   9
BRANCH   1  13
ATOM     13  C5  <0> d          -2.380   0.045   1.263  0.00  0.00    -0.069 C 
ATOM     14  H9  <0> d          -2.442   0.666   2.156  0.00  0.00     0.028 H 
ATOM     15  H10 <0> d          -3.199  -0.675   1.263  0.00  0.00     0.028 H 
ATOM     16  H11 <0> d          -1.429  -0.487   1.255  0.00  0.00     0.028 H 
ENDBRANCH   1  13
BRANCH   1  17
ATOM     17  C6  <0> d          -1.329   1.940   0.019  0.00  0.00     0.022 C 
ATOM     18  H12 <0> d          -1.391   2.561   0.913  0.00  0.00     0.049 H 
ATOM     19  H13 <0> d          -1.400   2.570  -0.867  0.00  0.00     0.049 H 
BRANCH  17  20
ATOM     20  C7  <0> d          -0.014   1.204   0.009  0.00  0.00     0.259 C 
ATOM     21  O1  <0> d           0.002  -0.004   0.002  0.00  0.00    -0.265 OA
BRANCH  20  22
ATOM     22  O2  <0> d           1.139   1.891   0.001  0.00  0.00    -0.326 OA
BRANCH  22  23
ATOM     23  C8  <0> d           2.367   1.117  -0.015  0.00  0.00     0.013 C 
ATOM     24  H14 <0> d           2.392   0.493  -0.908  0.00  0.00     0.067 H 
ATOM     25  H15 <0> d           3.223   1.792  -0.019  0.00  0.00     0.067 H 
ATOM     26  H16 <0> d           2.409   0.484   0.872  0.00  0.00     0.067 H 
ENDBRANCH  22  23
ENDBRANCH  20  22
ENDBRANCH  17  20
ENDBRANCH   1  17
TORSDOF 8
