REMARK  1 active torsions:
REMARK  status: ('A' for Active; 'I' for Inactive)
REMARK    1  A    between atoms: C1_1  and  C2_2 
ROOT
ATOM      1  C2  <0> d           0.002  -0.004   0.002  0.00  0.00     0.143 A 
ATOM      2  N1  <0> d           0.008  -0.741  -1.069  0.00  0.00    -0.225 NA
ATOM      3  C3  <0> d           0.027  -2.049  -0.700  0.00  0.00     0.110 A 
ATOM      4  C4  <0> d           0.040  -3.261  -1.387  0.00  0.00     0.032 A 
ATOM      5  N2  <0> d           0.058  -4.399  -0.724  0.00  0.00    -0.271 NA
ATOM      6  C5  <0> d           0.064  -4.446   0.598  0.00  0.00     0.005 A 
ATOM      7  C6  <0> d           0.052  -3.293   1.355  0.00  0.00    -0.031 A 
ATOM      8  C7  <0> d           0.033  -2.065   0.707  0.00  0.00     0.109 A 
ATOM      9  O1  <0> d           0.023  -0.777   1.100  0.00  0.00    -0.294 OA
ATOM     10  H4  <0> d           0.036  -3.268  -2.467  0.00  0.00     0.118 H 
ATOM     11  H5  <0> d           0.078  -5.405   1.093  0.00  0.00     0.114 H 
ATOM     12  H6  <0> d           0.057  -3.345   2.434  0.00  0.00     0.090 H 
ENDROOT
BRANCH   1  13
ATOM     13  C1  <0> d          -0.018   1.503   0.010  0.00  0.00    -0.015 C 
ATOM     14  H1  <0> d           1.004   1.880   0.003  0.00  0.00     0.038 H 
ATOM     15  H2  <0> d          -0.545   1.864  -0.873  0.00  0.00     0.038 H 
ATOM     16  H3  <0> d          -0.529   1.854   0.907  0.00  0.00     0.038 H 
ENDBRANCH   1  13
TORSDOF 1
