REMARK  1 active torsions:
REMARK  status: ('A' for Active; 'I' for Inactive)
REMARK    1  A    between atoms: C2_2  and  C3_3 
ROOT
ATOM      1  C3  <0> d          -1.268  -0.760   0.010  0.00  0.00    -0.037 A 
ATOM      2  C4  <0> d          -2.487  -0.082   0.020  0.00  0.00    -0.071 A 
ATOM      3  C5  <0> d          -3.669  -0.793   0.027  0.00  0.00    -0.061 A 
ATOM      4  C6  <0> d          -3.647  -2.178   0.026  0.00  0.00     0.034 A 
ATOM      5  C7  <0> d          -2.440  -2.856   0.017  0.00  0.00    -0.061 A 
ATOM      6  C8  <0> d          -1.252  -2.156   0.002  0.00  0.00    -0.071 A 
ATOM      7 Cl1  <0> d          -5.138  -3.066   0.036  0.00  0.00    -0.084 Cl
ATOM      8  H4  <0> d          -2.505   0.998   0.021  0.00  0.00     0.084 H 
ATOM      9  H5  <0> d          -4.613  -0.269   0.035  0.00  0.00     0.086 H 
ATOM     10  H6  <0> d          -2.429  -3.936   0.016  0.00  0.00     0.086 H 
ATOM     11  H7  <0> d          -0.311  -2.686  -0.010  0.00  0.00     0.084 H 
ENDROOT
BRANCH   1  12
ATOM     12  C2  <0> d           0.002  -0.004   0.002  0.00  0.00    -0.082 C 
ATOM     13  C1  <0> d          -0.016   1.321   0.009  0.00  0.00    -0.120 C 
ATOM     14  H1  <0> d           0.912   1.874   0.003  0.00  0.00     0.066 H 
ATOM     15  H2  <0> d          -0.958   1.849   0.017  0.00  0.00     0.066 H 
ATOM     16  H3  <0> d           0.945  -0.531  -0.010  0.00  0.00     0.083 H 
ENDBRANCH   1  12
TORSDOF 1
