REMARK  4 active torsions:
REMARK  status: ('A' for Active; 'I' for Inactive)
REMARK    1  A    between atoms: C1_1  and  C2_2 
REMARK    2  A    between atoms: C2_2  and  O2_11 
REMARK    3  A    between atoms: C4_4  and  C6_9 
REMARK    4  A    between atoms: C4_4  and  C7_10 
ROOT
ATOM      1  C2  <0> d           0.002  -0.004   0.002  0.00  0.00     0.133 C 
ATOM      2  C3  <0> d          -1.410  -0.562  -0.117  0.00  0.00     0.004 C 
ATOM      3  C4  <0> d          -2.083  -0.800   1.229  0.00  0.00     0.031 C 
ATOM      4  N1  <0> d          -1.179  -1.512   2.133  0.00  0.00    -0.334 N 
ATOM      5  C5  <0> d           0.140  -1.282   2.104  0.00  0.00     0.319 C 
ATOM      6  O1  <0> d           0.848  -1.817   2.934  0.00  0.00    -0.247 OA
ATOM      7  N2  <0> d           0.705  -0.498   1.179  0.00  0.00    -0.311 N 
ATOM      8  H4  <0> d          -2.023   0.135  -0.706  0.00  0.00     0.043 H 
ATOM      9  H5  <0> d          -1.376  -1.510  -0.672  0.00  0.00     0.043 H 
ATOM     10  H6  <0> d          -1.540  -2.156   2.760  0.00  0.00     0.165 HD
ATOM     11  H7  <0> d           1.641  -0.243   1.303  0.00  0.00     0.167 HD
ENDROOT
BRANCH   3  12
ATOM     12  C6  <0> d          -2.523   0.517   1.870  0.00  0.00    -0.053 C 
ATOM     13  H8  <0> d          -3.231   1.022   1.212  0.00  0.00     0.030 H 
ATOM     14  H9  <0> d          -2.999   0.313   2.829  0.00  0.00     0.030 H 
ATOM     15  H10 <0> d          -1.652   1.154   2.024  0.00  0.00     0.030 H 
ENDBRANCH   3  12
BRANCH   3  16
ATOM     16  C7  <0> d          -3.331  -1.673   1.010  0.00  0.00    -0.053 C 
ATOM     17  H11 <0> d          -3.036  -2.625   0.570  0.00  0.00     0.030 H 
ATOM     18  H12 <0> d          -3.822  -1.851   1.967  0.00  0.00     0.030 H 
ATOM     19  H13 <0> d          -4.019  -1.160   0.338  0.00  0.00     0.030 H 
ENDBRANCH   3  16
BRANCH   1  20
ATOM     20  C1  <0> d          -0.019   1.528   0.010  0.00  0.00    -0.031 C 
ATOM     21  H1  <0> d           1.004   1.905   0.003  0.00  0.00     0.034 H 
ATOM     22  H2  <0> d          -0.546   1.889  -0.873  0.00  0.00     0.034 H 
ATOM     23  H3  <0> d          -0.529   1.879   0.907  0.00  0.00     0.034 H 
ENDBRANCH   1  20
BRANCH   1  24
ATOM     24  O2  <0> d           0.747  -0.421  -1.162  0.00  0.00    -0.371 OA
ATOM     25  H14 <0> d           1.660  -0.105  -1.178  0.00  0.00     0.212 HD
ENDBRANCH   1  24
TORSDOF 4
