REMARK  1 active torsions:
REMARK  status: ('A' for Active; 'I' for Inactive)
REMARK    1  A    between atoms: C1_1  and  C2_2 
ROOT
ATOM      1  C2  <0> d           1.211   2.045   0.002  0.00  0.00     0.051 A 
ATOM      2  C3  <0> d          -0.016   1.362   0.009  0.00  0.00    -0.053 A 
ATOM      3  C4  <0> d           0.002  -0.004   0.002  0.00  0.00    -0.014 A 
ATOM      4  C5  <0> d           1.260  -0.645  -0.013  0.00  0.00     0.261 A 
ATOM      5  O1  <0> d           1.330  -1.864  -0.020  0.00  0.00    -0.267 OA
ATOM      6  N1  <0> d           2.380   0.101  -0.020  0.00  0.00    -0.243 N 
ATOM      7  H1  <0> d           3.366  -0.387  -0.033  0.00  0.00     0.192 HD
ATOM      8  N2  <0> d           2.335   1.384  -0.012  0.00  0.00    -0.177 NA
ATOM      9  H5  <0> d          -0.951   1.903   0.017  0.00  0.00     0.086 H 
ATOM     10  H6  <0> d          -0.915  -0.574   0.007  0.00  0.00     0.092 H 
ENDROOT
BRANCH   1  11
ATOM     11  C1  <0> d           1.229   3.552   0.009  0.00  0.00    -0.034 C 
ATOM     12  H2  <0> d           0.196   3.930   0.021  0.00  0.00     0.035 H 
ATOM     13  H3  <0> d           1.743   3.917  -0.892  0.00  0.00     0.035 H 
ATOM     14  H4  <0> d           1.760   3.908   0.904  0.00  0.00     0.035 H 
ENDBRANCH   1  11
TORSDOF 1
