REMARK  2 active torsions:
REMARK  status: ('A' for Active; 'I' for Inactive)
REMARK    1  A    between atoms: C3_3  and  C4_5 
REMARK    2  A    between atoms: C7_9  and  C8_11 
ROOT
ATOM      1  C1  <0> d          -0.019   1.546   0.011  0.00  0.00    -0.052 C 
ATOM      2  C2  <0> d           1.462   1.976  -0.001  0.00  0.00    -0.052 C 
ATOM      3  C3  <0> d           2.275   0.656  -0.017  0.00  0.00     0.033 C 
ATOM      4  H1  <0> d           3.241   0.747  -0.513  0.00  0.00     0.056 H 
ATOM      5  C8  <0> d           0.002  -0.004   0.002  0.00  0.00     0.033 C 
ATOM      6  H4  <0> d          -0.878  -0.448  -0.464  0.00  0.00     0.056 H 
ATOM      7  C9  <0> d           1.321  -0.323  -0.709  0.00  0.00     0.140 C 
ATOM      8  O1  <0> d           1.548  -1.129  -1.580  0.00  0.00    -0.297 OA
ATOM      9  H5  <0> d          -0.511   1.911   0.912  0.00  0.00     0.034 H 
ATOM     10  H6  <0> d          -0.528   1.921  -0.877  0.00  0.00     0.034 H 
ATOM     11  H7  <0> d           1.677   2.562  -0.895  0.00  0.00     0.034 H 
ATOM     12  H8  <0> d           1.695   2.552   0.894  0.00  0.00     0.034 H 
ENDROOT
BRANCH   5  13
ATOM     13  C7  <0> d           0.239  -0.464   1.502  0.00  0.00     0.065 C 
ATOM     14  C6  <0> d           1.105  -1.714   1.474  0.00  0.00    -0.076 C 
ATOM     15  C5  <0> d           2.363  -1.329   1.448  0.00  0.00    -0.076 C 
ATOM     16  H10 <0> d           0.751  -2.734   1.476  0.00  0.00     0.080 H 
ATOM     17  C4  <0> d           2.382   0.192   1.457  0.00  0.00     0.065 C 
ATOM     18  H9  <0> d           3.227  -1.976   1.424  0.00  0.00     0.080 H 
ATOM     19  H2  <0> d           3.251   0.604   1.970  0.00  0.00     0.090 H 
ATOM     20  O2  <0> d           1.125   0.555   2.086  0.00  0.00    -0.371 OA
ATOM     21  H3  <0> d          -0.685  -0.598   2.064  0.00  0.00     0.090 H 
BRANCH  17  22
ENDBRANCH  17  22
ENDBRANCH   5  13
TORSDOF 2
