REMARK  3 active torsions:
REMARK  status: ('A' for Active; 'I' for Inactive)
REMARK    1  A    between atoms: C1_1  and  C2_2 
REMARK    2  A    between atoms: C3_5  and  O1_7 
REMARK    3  A    between atoms: O1_7  and  C5_8 
ROOT
ATOM      1  C2  <0> d           0.002  -0.004   0.002  0.00  0.00     0.038 A 
ATOM      2  N1  <0> d           0.008  -0.775  -1.034  0.00  0.00    -0.157 NA
ATOM      3  N2  <0> d           0.028  -2.123  -0.695  0.00  0.00    -0.129 NA
ATOM      4  C3  <0> d           0.036  -2.308   0.593  0.00  0.00     0.167 A 
ATOM      5  C4  <0> d           0.026  -0.922   1.208  0.00  0.00     0.035 A 
ATOM      6  H4  <0> d           0.926  -0.756   1.800  0.00  0.00     0.054 H 
ATOM      7  H5  <0> d          -0.867  -0.780   1.817  0.00  0.00     0.054 H 
ENDROOT
BRANCH   4   8
ATOM      8  O1  <0> d           0.054  -3.488   1.246  0.00  0.00    -0.341 OA
BRANCH   8   9
ATOM      9  C5  <0> d           0.068  -4.672   0.447  0.00  0.00     0.012 C 
ATOM     10  H6  <0> d          -0.824  -4.698  -0.179  0.00  0.00     0.067 H 
ATOM     11  H7  <0> d           0.956  -4.673  -0.186  0.00  0.00     0.067 H 
ATOM     12  H8  <0> d           0.082  -5.548   1.095  0.00  0.00     0.067 H 
ENDBRANCH   8   9
ENDBRANCH   4   8
BRANCH   1  13
ATOM     13  C1  <0> d          -0.018   1.503   0.010  0.00  0.00    -0.037 C 
ATOM     14  H1  <0> d           1.004   1.880   0.003  0.00  0.00     0.035 H 
ATOM     15  H2  <0> d          -0.545   1.864  -0.873  0.00  0.00     0.035 H 
ATOM     16  H3  <0> d          -0.529   1.854   0.907  0.00  0.00     0.035 H 
ENDBRANCH   1  13
TORSDOF 3
