REMARK  5 active torsions:
REMARK  status: ('A' for Active; 'I' for Inactive)
REMARK    1  A    between atoms: C1_1  and  C2_2 
REMARK    2  A    between atoms: C2_2  and  C3_3 
REMARK    3  A    between atoms: C3_3  and  N1_4 
REMARK    4  A    between atoms: C4_5  and  C7_10 
REMARK    5  A    between atoms: C6_7  and  N3_9 
ROOT
ATOM      1  N1  <0> d          -3.379   2.124   0.030  0.00  0.00    -0.272 N 
ATOM      2  C4  <0> d          -2.725   3.304   0.033  0.00  0.00     0.030 A 
ATOM      3  C5  <0> d          -1.398   3.044   0.031  0.00  0.00    -0.015 A 
ATOM      4  C6  <0> d          -1.233   1.649   0.017  0.00  0.00     0.143 A 
ATOM      5  N2  <0> d          -2.424   1.099   0.020  0.00  0.00    -0.155 NA
ATOM      6  H8  <0> d          -0.606   3.778   0.037  0.00  0.00     0.092 H 
ENDROOT
BRANCH   1   7
ATOM      7  C3  <0> d          -4.833   1.945   0.036  0.00  0.00     0.017 C 
ATOM      8  H6  <0> d          -5.304   2.786  -0.471  0.00  0.00     0.067 H 
ATOM      9  H7  <0> d          -5.088   1.020  -0.481  0.00  0.00     0.067 H 
BRANCH   7  10
ATOM     10  C2  <0> d          -5.332   1.876   1.481  0.00  0.00    -0.052 C 
ATOM     11  H4  <0> d          -4.860   1.035   1.988  0.00  0.00     0.035 H 
ATOM     12  H5  <0> d          -5.077   2.801   1.998  0.00  0.00     0.035 H 
BRANCH  10  13
ATOM     13  C1  <0> d          -6.851   1.690   1.487  0.00  0.00    -0.075 C 
ATOM     14  H1  <0> d          -7.322   2.531   0.980  0.00  0.00     0.027 H 
ATOM     15  H2  <0> d          -7.105   0.764   0.971  0.00  0.00     0.027 H 
ATOM     16  H3  <0> d          -7.206   1.641   2.517  0.00  0.00     0.027 H 
ENDBRANCH  10  13
ENDBRANCH   7  10
ENDBRANCH   1   7
BRANCH   2  17
ATOM     17  C7  <0> d          -3.361   4.670   0.042  0.00  0.00    -0.036 C 
ATOM     18  H11 <0> d          -3.510   4.995   1.072  0.00  0.00     0.035 H 
ATOM     19  H12 <0> d          -2.710   5.378  -0.471  0.00  0.00     0.035 H 
ATOM     20  H13 <0> d          -4.324   4.627  -0.467  0.00  0.00     0.035 H 
ENDBRANCH   2  17
BRANCH   4  21
ATOM     21  N3  <0> d          -0.011   0.966   0.007  0.00  0.00    -0.383 N 
ATOM     22  H9  <0> d           0.002  -0.004   0.002  0.00  0.00     0.157 HD
ATOM     23  H10 <0> d           0.822   1.462   0.002  0.00  0.00     0.157 HD
ENDBRANCH   4  21
TORSDOF 5
