REMARK  8 active torsions:
REMARK  status: ('A' for Active; 'I' for Inactive)
REMARK    1  A    between atoms: C1_1  and  C2_2 
REMARK    2  A    between atoms: C2_2  and  C3_4 
REMARK    3  A    between atoms: C2_2  and  C9_11 
REMARK    4  A    between atoms: C3_4  and  C4_5 
REMARK    5  A    between atoms: C4_5  and  C5_7 
REMARK    6  A    between atoms: C5_7  and  C6_8 
REMARK    7  A    between atoms: C6_8  and  C7_9 
REMARK    8  A    between atoms: C6_8  and  C8_10 
ROOT
ATOM      1  C4  <0> d           2.188  -0.092   1.170  0.00  0.00     0.128 C 
ATOM      2  O1  <0> d           2.586   0.546   0.225  0.00  0.00    -0.298 OA
ENDROOT
BRANCH   1   3
ATOM      3  C3  <0> d           0.742  -0.511   1.242  0.00  0.00    -0.004 C 
ATOM      4  H5  <0> d           0.285  -0.087   2.136  0.00  0.00     0.045 H 
ATOM      5  H6  <0> d           0.680  -1.598   1.282  0.00  0.00     0.045 H 
BRANCH   3   6
ATOM      6  C2  <0> d           0.002  -0.004   0.002  0.00  0.00    -0.036 C 
ATOM      7  H1  <0> d           0.512  -0.356  -0.895  0.00  0.00     0.046 H 
BRANCH   6   8
ATOM      8  C1  <0> d          -0.019   1.526   0.010  0.00  0.00    -0.069 C 
ATOM      9  H2  <0> d           1.004   1.903   0.003  0.00  0.00     0.028 H 
ATOM     10  H3  <0> d          -0.546   1.887  -0.873  0.00  0.00     0.028 H 
ATOM     11  H4  <0> d          -0.529   1.877   0.907  0.00  0.00     0.028 H 
ENDBRANCH   6   8
BRANCH   6  12
ATOM     12  C9  <0> d          -1.412  -0.526   0.013  0.00  0.00    -0.108 C 
ATOM     13  C10 <0> d          -1.839  -1.279  -0.970  0.00  0.00    -0.124 C 
ATOM     14  H17 <0> d          -1.179  -1.527  -1.788  0.00  0.00     0.066 H 
ATOM     15  H18 <0> d          -2.853  -1.653  -0.962  0.00  0.00     0.066 H 
ATOM     16  H16 <0> d          -2.072  -0.278   0.830  0.00  0.00     0.076 H 
ENDBRANCH   6  12
ENDBRANCH   3   6
ENDBRANCH   1   3
BRANCH   1  17
ATOM     17  C5  <0> d           3.138  -0.470   2.277  0.00  0.00    -0.007 C 
ATOM     18  H7  <0> d           2.787  -0.044   3.217  0.00  0.00     0.044 H 
ATOM     19  H8  <0> d           3.182  -1.555   2.364  0.00  0.00     0.044 H 
BRANCH  17  20
ATOM     20  C6  <0> d           4.532   0.074   1.960  0.00  0.00    -0.055 C 
ATOM     21  H9  <0> d           4.473   1.148   1.786  0.00  0.00     0.039 H 
BRANCH  20  22
ATOM     22  C7  <0> d           5.467  -0.200   3.140  0.00  0.00    -0.073 C 
ATOM     23  H10 <0> d           5.527  -1.275   3.314  0.00  0.00     0.028 H 
ATOM     24  H11 <0> d           6.460   0.187   2.915  0.00  0.00     0.028 H 
ATOM     25  H12 <0> d           5.079   0.291   4.033  0.00  0.00     0.028 H 
ENDBRANCH  20  22
BRANCH  20  26
ATOM     26  C8  <0> d           5.076  -0.616   0.708  0.00  0.00    -0.073 C 
ATOM     27  H13 <0> d           4.411  -0.421  -0.133  0.00  0.00     0.028 H 
ATOM     28  H14 <0> d           6.070  -0.229   0.482  0.00  0.00     0.028 H 
ATOM     29  H15 <0> d           5.136  -1.690   0.882  0.00  0.00     0.028 H 
ENDBRANCH  20  26
ENDBRANCH  17  20
ENDBRANCH   1  17
TORSDOF 8
