REMARK  4 active torsions:
REMARK  status: ('A' for Active; 'I' for Inactive)
REMARK    1  A    between atoms: C1_1  and  C2_2 
REMARK    2  A    between atoms: C2_2  and  C3_4 
REMARK    3  A    between atoms: C2_2  and  C6_7 
REMARK    4  A    between atoms: C3_4  and  C4_5 
ROOT
ATOM      1  C2  <0> d          -3.307   1.388   1.207  0.00  0.00     0.030 C 
ATOM      2  H1  <0> d          -3.444   2.468   1.172  0.00  0.00     0.056 H 
ENDROOT
BRANCH   1   3
ATOM      3  C1  <0> d          -2.605   1.005   2.512  0.00  0.00    -0.063 C 
ATOM      4  H2  <0> d          -3.215   1.321   3.358  0.00  0.00     0.028 H 
ATOM      5  H3  <0> d          -2.467  -0.076   2.546  0.00  0.00     0.028 H 
ATOM      6  H4  <0> d          -1.634   1.497   2.560  0.00  0.00     0.028 H 
ENDBRANCH   1   3
BRANCH   1   7
ATOM      7  C3  <0> d          -2.451   0.944   0.019  0.00  0.00    -0.038 C 
ATOM      8  H5  <0> d          -2.989   1.136  -0.909  0.00  0.00     0.040 H 
ATOM      9  H6  <0> d          -2.239  -0.122   0.102  0.00  0.00     0.040 H 
BRANCH   7  10
ATOM     10  C4  <0> d          -1.156   1.715   0.017  0.00  0.00    -0.111 C 
ATOM     11  C5  <0> d          -0.013   1.076   0.008  0.00  0.00    -0.125 C 
ATOM     12  H8  <0> d           0.002  -0.004   0.002  0.00  0.00     0.066 H 
ATOM     13  H9  <0> d           0.915   1.629   0.002  0.00  0.00     0.066 H 
ATOM     14  H7  <0> d          -1.171   2.795   0.023  0.00  0.00     0.075 H 
ENDBRANCH   7  10
ENDBRANCH   1   7
BRANCH   1  15
ATOM     15  C6  <0> d          -4.650   0.708   1.140  0.00  0.00     0.176 C 
ATOM     16  O1  <0> d          -4.897  -0.054   0.235  0.00  0.00    -0.648 OA
ATOM     17  O2  <0> d          -5.571   0.947   2.086  0.00  0.00    -0.648 OA
ENDBRANCH   1  15
TORSDOF 4
