REMARK  8 active torsions:
REMARK  status: ('A' for Active; 'I' for Inactive)
REMARK    1  A    between atoms: C1_1  and  C2_2 
REMARK    2  A    between atoms: C2_2  and  C3_3 
REMARK    3  A    between atoms: C3_3  and  C4_4 
REMARK    4  A    between atoms: C4_4  and  C5_6 
REMARK    5  A    between atoms: C4_4  and  C8_11 
REMARK    6  A    between atoms: C5_6  and  C6_7 
REMARK    7  A    between atoms: C6_7  and  C7_9 
REMARK    8  A    between atoms: C6_7  and  O1_10 
ROOT
ATOM      1  C4  <0> d           1.235   3.094   0.007  0.00  0.00     0.033 C 
ATOM      2  H1  <0> d           0.744   3.473   0.904  0.00  0.00     0.056 H 
ENDROOT
BRANCH   1   3
ATOM      3  C3  <0> d           2.696   3.548  -0.005  0.00  0.00    -0.053 C 
ATOM      4  H8  <0> d           3.210   3.097  -0.854  0.00  0.00     0.034 H 
ATOM      5  H9  <0> d           2.739   4.634  -0.089  0.00  0.00     0.034 H 
BRANCH   3   6
ATOM      6  C2  <0> d           3.376   3.110   1.294  0.00  0.00    -0.068 C 
ATOM      7  H6  <0> d           2.863   3.561   2.143  0.00  0.00     0.032 H 
ATOM      8  H7  <0> d           3.334   2.024   1.378  0.00  0.00     0.032 H 
BRANCH   6   9
ATOM      9  C1  <0> d           4.838   3.564   1.282  0.00  0.00    -0.076 C 
ATOM     10  H3  <0> d           4.880   4.650   1.198  0.00  0.00     0.027 H 
ATOM     11  H4  <0> d           5.322   3.252   2.208  0.00  0.00     0.027 H 
ATOM     12  H5  <0> d           5.351   3.113   0.433  0.00  0.00     0.027 H 
ENDBRANCH   6   9
ENDBRANCH   3   6
ENDBRANCH   1   3
BRANCH   1  13
ATOM     13  C5  <0> d           0.522   3.639  -1.233  0.00  0.00    -0.029 C 
ATOM     14  H10 <0> d           0.641   4.721  -1.274  0.00  0.00     0.038 H 
ATOM     15  H11 <0> d           0.956   3.191  -2.127  0.00  0.00     0.038 H 
BRANCH  13  16
ATOM     16  C6  <0> d          -0.966   3.291  -1.159  0.00  0.00     0.033 C 
ATOM     17  H2  <0> d          -1.082   2.215  -1.028  0.00  0.00     0.082 H 
BRANCH  16  18
ATOM     18  C7  <0> d          -1.656   3.724  -2.454  0.00  0.00    -0.052 C 
ATOM     19  H12 <0> d          -1.203   3.205  -3.299  0.00  0.00     0.030 H 
ATOM     20  H13 <0> d          -2.716   3.477  -2.402  0.00  0.00     0.030 H 
ATOM     21  H14 <0> d          -1.540   4.801  -2.585  0.00  0.00     0.030 H 
ENDBRANCH  16  18
BRANCH  16  22
ATOM     22  O1  <0> d          -1.560   3.972  -0.052  0.00  0.00    -0.396 OA
ATOM     23  H15 <0> d          -1.494   4.935  -0.102  0.00  0.00     0.210 HD
ENDBRANCH  16  22
ENDBRANCH  13  16
ENDBRANCH   1  13
BRANCH   1  24
ATOM     24  C8  <0> d           1.177   1.588  -0.001  0.00  0.00     0.177 C 
ATOM     25  O2  <0> d           2.199   0.944  -0.014  0.00  0.00    -0.648 OA
ATOM     26  O3  <0> d          -0.011   0.963   0.007  0.00  0.00    -0.648 OA
ENDBRANCH   1  24
TORSDOF 8
