REMARK  2 active torsions:
REMARK  status: ('A' for Active; 'I' for Inactive)
REMARK    1  A    between atoms: C1_1  and  C2_2 
REMARK    2  A    between atoms: C2_2  and  O3_9 
ROOT
ATOM      1  C2  <0> d           0.002  -0.004   0.002  0.00  0.00     0.065 C 
ATOM      2  C3  <0> d          -1.434  -0.537   0.029  0.00  0.00    -0.016 C 
ATOM      3  C4  <0> d          -1.407  -2.068   0.038  0.00  0.00     0.031 C 
ATOM      4  O1  <0> d          -0.672  -2.520   1.181  0.00  0.00    -0.321 OA
ATOM      5  C5  <0> d           0.572  -2.016   1.316  0.00  0.00     0.261 C 
ATOM      6  O2  <0> d           1.521  -2.743   1.488  0.00  0.00    -0.265 OA
ATOM      7  C6  <0> d           0.744  -0.515   1.244  0.00  0.00     0.044 C 
ATOM      8  H4  <0> d          -1.939  -0.176   0.924  0.00  0.00     0.040 H 
ATOM      9  H5  <0> d          -1.968  -0.188  -0.856  0.00  0.00     0.040 H 
ATOM     10  H6  <0> d          -2.427  -2.449   0.087  0.00  0.00     0.075 H 
ATOM     11  H7  <0> d          -0.926  -2.429  -0.871  0.00  0.00     0.075 H 
ATOM     12  H8  <0> d           1.803  -0.270   1.166  0.00  0.00     0.052 H 
ATOM     13  H9  <0> d           0.324  -0.054   2.138  0.00  0.00     0.052 H 
ENDROOT
BRANCH   1  14
ATOM     14  C1  <0> d          -0.019   1.526   0.010  0.00  0.00    -0.047 C 
ATOM     15  H1  <0> d           1.004   1.903   0.003  0.00  0.00     0.031 H 
ATOM     16  H2  <0> d          -0.546   1.887  -0.873  0.00  0.00     0.031 H 
ATOM     17  H3  <0> d          -0.529   1.877   0.907  0.00  0.00     0.031 H 
ENDBRANCH   1  14
BRANCH   1  18
ATOM     18  O3  <0> d           0.665  -0.467  -1.176  0.00  0.00    -0.390 OA
ATOM     19  H10 <0> d           1.582  -0.170  -1.254  0.00  0.00     0.210 HD
ENDBRANCH   1  18
TORSDOF 2
