REMARK  2 active torsions:
REMARK  status: ('A' for Active; 'I' for Inactive)
REMARK    1  A    between atoms: C1_1  and  O1_2 
REMARK    2  A    between atoms: O1_2  and  C2_3 
ROOT
ATOM      1  C2  <0> d           0.626  -0.619   1.042  0.00  0.00     0.070 A 
ATOM      2  C3  <0> d           1.202   0.148   2.052  0.00  0.00    -0.050 A 
ATOM      3  C4  <0> d           1.833  -0.454   3.104  0.00  0.00    -0.068 A 
ATOM      4  C5  <0> d           1.900  -1.847   3.168  0.00  0.00    -0.008 A 
ATOM      5  C6  <0> d           2.482  -2.793   4.125  0.00  0.00    -0.056 A 
ATOM      6  C7  <0> d           2.234  -4.026   3.656  0.00  0.00    -0.022 A 
ATOM      7  N1  <0> d           1.541  -3.947   2.478  0.00  0.00    -0.365 N 
ATOM      8  H1  <0> d           1.248  -4.708   1.952  0.00  0.00     0.165 HD
ATOM      9  C8  <0> d           1.321  -2.628   2.152  0.00  0.00     0.044 A 
ATOM     10  C9  <0> d           0.678  -1.999   1.091  0.00  0.00    -0.024 A 
ATOM     11  H5  <0> d           1.151   1.226   2.003  0.00  0.00     0.087 H 
ATOM     12  H6  <0> d           2.278   0.147   3.883  0.00  0.00     0.085 H 
ATOM     13  H7  <0> d           3.011  -2.545   5.033  0.00  0.00     0.086 H 
ATOM     14  H8  <0> d           2.537  -4.944   4.138  0.00  0.00     0.111 H 
ATOM     15  H9  <0> d           0.225  -2.587   0.306  0.00  0.00     0.091 H 
ENDROOT
BRANCH   1  16
ATOM     16  O1  <0> d           0.002  -0.004   0.002  0.00  0.00    -0.356 OA
BRANCH  16  17
ATOM     17  C1  <0> d          -0.017   1.425   0.010  0.00  0.00     0.010 C 
ATOM     18  H2  <0> d           1.005   1.802   0.002  0.00  0.00     0.066 H 
ATOM     19  H3  <0> d          -0.544   1.786  -0.873  0.00  0.00     0.066 H 
ATOM     20  H4  <0> d          -0.527   1.776   0.907  0.00  0.00     0.066 H 
ENDBRANCH  16  17
ENDBRANCH   1  16
TORSDOF 2
