REMARK  2 active torsions:
REMARK  status: ('A' for Active; 'I' for Inactive)
REMARK    1  A    between atoms: C2_2  and  N4_8 
REMARK    2  A    between atoms: C4_5  and  N3_7 
ROOT
ATOM      1  C1  <0> d          -2.355   3.647   0.033  0.00  0.00     0.048 A 
ATOM      2  C2  <0> d          -3.560   2.951   0.035  0.00  0.00     0.062 A 
ATOM      3  C3  <0> d          -3.522   1.560   0.027  0.00  0.00     0.048 A 
ATOM      4  N1  <0> d          -2.349   0.948   0.018  0.00  0.00    -0.073 NA
ATOM      5  C4  <0> d          -1.222   1.643   0.017  0.00  0.00     0.719 A 
ATOM      6  N2  <0> d          -1.220   2.967   0.029  0.00  0.00    -0.073 NA
ATOM      7  H1  <0> d          -2.346   4.726   0.038  0.00  0.00     0.119 H 
ATOM      8  H2  <0> d          -4.438   0.987   0.029  0.00  0.00     0.119 H 
ENDROOT
BRANCH   2   9
ATOM      9  N4  <0> d          -4.783   3.635   0.044  0.00  0.00    -0.397 N 
ATOM     10  H5  <0> d          -5.616   3.139   0.045  0.00  0.00     0.156 HD
ATOM     11  H6  <0> d          -4.796   4.605   0.049  0.00  0.00     0.156 HD
ENDBRANCH   2   9
BRANCH   5  12
ATOM     12  N3  <0> d          -0.011   0.966   0.007  0.00  0.00    -0.231 N 
ATOM     13  H3  <0> d           0.002  -0.004   0.002  0.00  0.00     0.174 HD
ATOM     14  H4  <0> d           0.822   1.462   0.002  0.00  0.00     0.174 HD
ENDBRANCH   5  12
TORSDOF 2
