REMARK  3 active torsions:
REMARK  status: ('A' for Active; 'I' for Inactive)
REMARK    1  A    between atoms: C1_1  and  N1_2 
REMARK    2  A    between atoms: C3_5  and  C4_7 
REMARK    3  A    between atoms: C4_7  and  O1_8 
ROOT
ATOM      1  N1  <0> d           0.002  -0.004   0.002  0.00  0.00    -0.266 N 
ATOM      2  C2  <0> d           0.008  -0.804  -1.079  0.00  0.00     0.084 A 
ATOM      3  N2  <0> d           0.028  -2.045  -0.665  0.00  0.00    -0.223 NA
ATOM      4  C3  <0> d           0.035  -2.077   0.667  0.00  0.00     0.170 A 
ATOM      5  N3  <0> d           0.025  -0.852   1.122  0.00  0.00    -0.154 NA
ATOM      6  H4  <0> d          -0.002  -0.479  -2.108  0.00  0.00     0.146 H 
ENDROOT
BRANCH   4   7
ATOM      7  C4  <0> d           0.056  -3.325   1.513  0.00  0.00     0.074 C 
ATOM      8  H5  <0> d          -0.456  -3.133   2.455  0.00  0.00     0.086 H 
ATOM      9  H6  <0> d          -0.449  -4.132   0.982  0.00  0.00     0.086 H 
BRANCH   7  10
ATOM     10  O1  <0> d           1.410  -3.700   1.774  0.00  0.00    -0.393 OA
ATOM     11  H7  <0> d           1.500  -4.496   2.314  0.00  0.00     0.209 HD
ENDBRANCH   7  10
ENDBRANCH   4   7
BRANCH   1  12
ATOM     12  C1  <0> d          -0.018   1.461   0.010  0.00  0.00     0.004 C 
ATOM     13  H1  <0> d           1.005   1.838   0.002  0.00  0.00     0.059 H 
ATOM     14  H2  <0> d          -0.545   1.822  -0.873  0.00  0.00     0.059 H 
ATOM     15  H3  <0> d          -0.528   1.812   0.907  0.00  0.00     0.059 H 
ENDBRANCH   1  12
TORSDOF 3
