REMARK  2 active torsions:
REMARK  status: ('A' for Active; 'I' for Inactive)
REMARK    1  A    between atoms: C1_1  and  C2_2 
REMARK    2  A    between atoms: C4_5  and  C8_11 
ROOT
ATOM      1  C2  <0> d           0.002  -0.004   0.002  0.00  0.00    -0.051 C 
ATOM      2  H1  <0> d          -1.020  -0.382   0.009  0.00  0.00     0.040 H 
ATOM      3  C3  <0> d           0.742  -0.511   1.241  0.00  0.00    -0.058 C 
ATOM      4  C4  <0> d           2.149   0.086   1.285  0.00  0.00    -0.051 C 
ATOM      5  H2  <0> d           2.084   1.174   1.261  0.00  0.00     0.040 H 
ATOM      6  C5  <0> d           2.949  -0.405   0.074  0.00  0.00    -0.007 C 
ATOM      7  C6  <0> d           2.171  -0.076  -1.181  0.00  0.00     0.127 C 
ATOM      8  O1  <0> d           2.695   0.510  -2.099  0.00  0.00    -0.298 OA
ATOM      9  C7  <0> d           0.721  -0.498  -1.258  0.00  0.00    -0.007 C 
ATOM     10  H6  <0> d           0.195  -0.215   2.136  0.00  0.00     0.034 H 
ATOM     11  H7  <0> d           0.810  -1.598   1.203  0.00  0.00     0.034 H 
ATOM     12  H8  <0> d           3.838   0.052   0.054  0.00  0.00     0.044 H 
ATOM     13  H9  <0> d           3.096  -1.483   0.145  0.00  0.00     0.044 H 
ATOM     14  H10 <0> d           0.656  -1.495  -1.309  0.00  0.00     0.044 H 
ATOM     15  H11 <0> d           0.257  -0.058  -2.140  0.00  0.00     0.044 H 
ENDROOT
BRANCH   1  16
ATOM     16  C1  <0> d          -0.019   1.526   0.010  0.00  0.00    -0.072 C 
ATOM     17  H3  <0> d           1.004   1.903   0.003  0.00  0.00     0.028 H 
ATOM     18  H4  <0> d          -0.546   1.887  -0.873  0.00  0.00     0.028 H 
ATOM     19  H5  <0> d          -0.529   1.877   0.907  0.00  0.00     0.028 H 
ENDBRANCH   1  16
BRANCH   4  20
ATOM     20  C8  <0> d           2.850  -0.354   2.572  0.00  0.00    -0.072 C 
ATOM     21  H12 <0> d           2.916  -1.442   2.596  0.00  0.00     0.028 H 
ATOM     22  H13 <0> d           3.853   0.071   2.603  0.00  0.00     0.028 H 
ATOM     23  H14 <0> d           2.281  -0.006   3.433  0.00  0.00     0.028 H 
ENDBRANCH   4  20
TORSDOF 2
