REMARK  7 active torsions:
REMARK  status: ('A' for Active; 'I' for Inactive)
REMARK    1  A    between atoms: C1_1  and  C2_2 
REMARK    2  A    between atoms: C2_2  and  N1_3 
REMARK       I    between atoms: N1_3  and  C3_4 
REMARK    3  A    between atoms: C3_4  and  C4_6 
REMARK    4  A    between atoms: C4_6  and  C5_8 
REMARK    5  A    between atoms: C4_6  and  O2_9 
REMARK    6  A    between atoms: O2_9  and  C6_10 
REMARK    7  A    between atoms: C6_10  and  C7_11 
ROOT
ATOM      1  C4  <0> d          -3.014  -2.361   0.018  0.00  0.00     0.111 C 
ATOM      2  H1  <0> d          -3.567  -1.929  -0.816  0.00  0.00     0.097 H 
ENDROOT
BRANCH   1   3
ATOM      3  C3  <0> d          -1.601  -1.839   0.007  0.00  0.00     0.246 C 
ATOM      4  N1  <0> d          -1.372  -0.511   0.012  0.00  0.00    -0.359 N 
ATOM      5  H7  <0> d          -2.118   0.109   0.023  0.00  0.00     0.162 HD
ATOM      6  O1  <0> d          -0.668  -2.615  -0.006  0.00  0.00    -0.271 OA
BRANCH   4   7
ATOM      7  C2  <0> d           0.002  -0.004   0.002  0.00  0.00    -0.008 C 
ATOM      8  H5  <0> d           0.512  -0.356  -0.895  0.00  0.00     0.063 H 
ATOM      9  H6  <0> d           0.529  -0.365   0.885  0.00  0.00     0.063 H 
BRANCH   7  10
ATOM     10  C1  <0> d          -0.019   1.526   0.010  0.00  0.00    -0.061 C 
ATOM     11  H2  <0> d           1.004   1.903   0.003  0.00  0.00     0.029 H 
ATOM     12  H3  <0> d          -0.546   1.887  -0.873  0.00  0.00     0.029 H 
ATOM     13  H4  <0> d          -0.529   1.877   0.907  0.00  0.00     0.029 H 
ENDBRANCH   7  10
ENDBRANCH   4   7
ENDBRANCH   1   3
BRANCH   1  14
ATOM     14  C5  <0> d          -3.691  -1.973   1.334  0.00  0.00    -0.044 C 
ATOM     15  H8  <0> d          -3.139  -2.404   2.168  0.00  0.00     0.031 H 
ATOM     16  H9  <0> d          -3.704  -0.887   1.430  0.00  0.00     0.031 H 
ATOM     17  H10 <0> d          -4.714  -2.350   1.342  0.00  0.00     0.031 H 
ENDBRANCH   1  14
BRANCH   1  18
ATOM     18  O2  <0> d          -2.998  -3.784  -0.107  0.00  0.00    -0.377 OA
BRANCH  18  19
ATOM     19  C6  <0> d          -4.147  -4.324  -0.764  0.00  0.00     0.017 C 
ATOM     20  H11 <0> d          -5.043  -4.060  -0.203  0.00  0.00     0.073 H 
ATOM     21  H12 <0> d          -4.215  -3.913  -1.772  0.00  0.00     0.073 H 
BRANCH  19  22
ATOM     22  C7  <0> d          -4.022  -5.846  -0.842  0.00  0.00    -0.056 C 
ATOM     23  H13 <0> d          -3.954  -6.257   0.166  0.00  0.00     0.030 H 
ATOM     24  H14 <0> d          -4.898  -6.258  -1.343  0.00  0.00     0.030 H 
ATOM     25  H15 <0> d          -3.126  -6.109  -1.403  0.00  0.00     0.030 H 
ENDBRANCH  19  22
ENDBRANCH  18  19
ENDBRANCH   1  18
TORSDOF 7
