REMARK  7 active torsions:
REMARK  status: ('A' for Active; 'I' for Inactive)
REMARK    1  A    between atoms: C1_1  and  O1_2 
REMARK    2  A    between atoms: O1_2  and  C2_3 
REMARK    3  A    between atoms: C2_3  and  C3_5 
REMARK    4  A    between atoms: C3_5  and  C4_7 
REMARK    5  A    between atoms: C3_5  and  N1_10 
REMARK    6  A    between atoms: C4_7  and  C5_8 
REMARK    7  A    between atoms: C5_8  and  O3_9 
ROOT
ATOM      1  C3  <0> d           0.679  -2.115   1.088  0.00  0.00     0.214 C 
ATOM      2  H1  <0> d           0.863  -2.511   0.090  0.00  0.00     0.104 H 
ENDROOT
BRANCH   1   3
ATOM      3  C2  <0> d           0.618  -0.611   1.029  0.00  0.00     0.291 C 
ATOM      4  O2  <0> d           1.124   0.049   1.905  0.00  0.00    -0.263 OA
BRANCH   3   5
ATOM      5  O1  <0> d           0.002  -0.004   0.002  0.00  0.00    -0.325 OA
BRANCH   5   6
ATOM      6  C1  <0> d          -0.017   1.425   0.010  0.00  0.00     0.013 C 
ATOM      7  H2  <0> d           1.005   1.802   0.002  0.00  0.00     0.067 H 
ATOM      8  H3  <0> d          -0.544   1.786  -0.873  0.00  0.00     0.067 H 
ATOM      9  H4  <0> d          -0.527   1.776   0.907  0.00  0.00     0.067 H 
ENDBRANCH   5   6
ENDBRANCH   3   5
ENDBRANCH   1   3
BRANCH   1  10
ATOM     10  C4  <0> d          -0.651  -2.659   1.615  0.00  0.00    -0.008 C 
ATOM     11  H5  <0> d          -0.793  -2.335   2.646  0.00  0.00     0.040 H 
ATOM     12  H6  <0> d          -1.467  -2.281   0.999  0.00  0.00     0.040 H 
BRANCH  10  13
ATOM     13  C5  <0> d          -0.636  -4.188   1.558  0.00  0.00     0.019 C 
ATOM     14  H7  <0> d          -0.493  -4.512   0.527  0.00  0.00     0.074 H 
ATOM     15  H8  <0> d           0.181  -4.566   2.174  0.00  0.00     0.074 H 
BRANCH  13  16
ATOM     16  O3  <0> d          -1.878  -4.695   2.050  0.00  0.00    -0.401 OA
ATOM     17  H9  <0> d          -1.938  -5.660   2.043  0.00  0.00     0.209 HD
ENDBRANCH  13  16
ENDBRANCH  10  13
ENDBRANCH   1  10
BRANCH   1  18
ATOM     18  N1  <0> d           1.766  -2.526   1.987  0.00  0.00     0.092 N 
ATOM     19  H10 <0> d           1.618  -2.171   2.920  0.00  0.00     0.313 HD
ATOM     20  H11 <0> d           1.869  -3.530   1.994  0.00  0.00     0.313 HD
ENDBRANCH   1  18
TORSDOF 7
