REMARK  3 active torsions:
REMARK  status: ('A' for Active; 'I' for Inactive)
REMARK    1  A    between atoms: C1_1  and  C2_2 
REMARK    2  A    between atoms: C4_6  and  C5_8 
REMARK    3  A    between atoms: C5_8  and  C6_10 
ROOT
ATOM      1  C2  <0> d          -0.741   5.154   1.224  0.00  0.00     0.100 A 
ATOM      2  N1  <0> d          -1.399   4.933   2.392  0.00  0.00    -0.352 N 
ATOM      3  H1  <0> d          -1.749   5.783   2.996  0.00  0.00     0.166 HD
ATOM      4  C3  <0> d          -1.487   3.596   2.572  0.00  0.00     0.010 A 
ATOM      5  C4  <0> d          -0.869   3.009   1.489  0.00  0.00     0.119 A 
ATOM      6  N2  <0> d          -0.421   4.012   0.688  0.00  0.00    -0.231 NA
ATOM      7  H5  <0> d          -1.952   3.086   3.404  0.00  0.00     0.115 H 
ENDROOT
BRANCH   5   8
ATOM      8  C5  <0> d          -0.718   1.572   1.248  0.00  0.00     0.175 C 
ATOM      9  O1  <0> d          -1.161   0.773   2.047  0.00  0.00    -0.291 OA
BRANCH   8  10
ATOM     10  C6  <0> d          -0.013   1.086   0.008  0.00  0.00    -0.015 C 
ATOM     11  H6  <0> d           0.002  -0.014   0.002  0.00  0.00     0.038 H 
ATOM     12  H7  <0> d           1.019   1.466   0.000  0.00  0.00     0.038 H 
ATOM     13  H8  <0> d          -0.545   1.450  -0.883  0.00  0.00     0.038 H 
ENDBRANCH   8  10
ENDBRANCH   5   8
BRANCH   1  14
ATOM     14  C1  <0> d          -0.426   6.508   0.643  0.00  0.00    -0.021 C 
ATOM     15  H2  <0> d          -0.817   7.292   1.309  0.00  0.00     0.037 H 
ATOM     16  H3  <0> d          -0.896   6.601  -0.347  0.00  0.00     0.037 H 
ATOM     17  H4  <0> d           0.663   6.620   0.544  0.00  0.00     0.037 H 
ENDBRANCH   1  14
TORSDOF 3
