REMARK  1 active torsions:
REMARK  status: ('A' for Active; 'I' for Inactive)
REMARK    1  A    between atoms: C1_1  and  C2_2 
ROOT
ATOM      1  C2  <0> d           3.618  -0.838  -0.037  0.00  0.00    -0.044 A 
ATOM      2  C3  <0> d           3.457  -2.169  -0.043  0.00  0.00    -0.038 A 
ATOM      3  S1  <0> d           1.687  -2.376  -0.027  0.00  0.00    -0.101 SA
ATOM      4  C4  <0> d           1.210  -0.667  -0.013  0.00  0.00     0.015 A 
ATOM      5  C5  <0> d           2.443   0.021  -0.021  0.00  0.00    -0.013 A 
ATOM      6  C6  <0> d           2.381   1.435  -0.013  0.00  0.00    -0.071 A 
ATOM      7  C7  <0> d           1.182   2.077   0.002  0.00  0.00    -0.082 A 
ATOM      8  C8  <0> d          -0.017   1.377   0.010  0.00  0.00    -0.082 A 
ATOM      9  C9  <0> d           0.002  -0.004   0.002  0.00  0.00    -0.066 A 
ATOM     10  H4  <0> d           4.219  -2.935  -0.054  0.00  0.00     0.095 H 
ATOM     11  H5  <0> d           3.295   2.010  -0.019  0.00  0.00     0.084 H 
ATOM     12  H6  <0> d           1.162   3.157   0.008  0.00  0.00     0.083 H 
ATOM     13  H7  <0> d          -0.957   1.908   0.017  0.00  0.00     0.083 H 
ATOM     14  H8  <0> d          -0.923  -0.561   0.007  0.00  0.00     0.085 H 
ENDROOT
BRANCH   1  15
ATOM     15  C1  <0> d           5.000  -0.238  -0.046  0.00  0.00    -0.050 C 
ATOM     16  H1  <0> d           5.343  -0.100   0.979  0.00  0.00     0.033 H 
ATOM     17  H2  <0> d           5.683  -0.907  -0.571  0.00  0.00     0.033 H 
ATOM     18  H3  <0> d           4.974   0.725  -0.555  0.00  0.00     0.033 H 
ENDBRANCH   1  15
TORSDOF 1
