REMARK  4 active torsions:
REMARK  status: ('A' for Active; 'I' for Inactive)
REMARK    1  A    between atoms: C1_1  and  C2_2 
REMARK    2  A    between atoms: C1_1  and  O2_10 
REMARK    3  A    between atoms: C2_2  and  C3_4 
REMARK    4  A    between atoms: C2_2  and  C4_6 
ROOT
ATOM      1  C2  <0> d           1.145   3.085   0.008  0.00  0.00     0.144 C 
ATOM      2  H1  <0> d           0.532   3.388   0.857  0.00  0.00     0.073 H 
ENDROOT
BRANCH   1   3
ATOM      3  C1  <0> d           1.286   1.562  -0.002  0.00  0.00     0.037 C 
ATOM      4  H2  <0> d           1.840   1.243   0.881  0.00  0.00     0.075 H 
ATOM      5  H3  <0> d           1.823   1.252  -0.899  0.00  0.00     0.075 H 
BRANCH   3   6
ATOM      6  O2  <0> d          -0.011   0.963   0.007  0.00  0.00    -0.400 OA
ATOM      7  H4  <0> d           0.002  -0.004   0.002  0.00  0.00     0.209 HD
ENDBRANCH   3   6
ENDBRANCH   1   3
BRANCH   1   8
ATOM      8  C3  <0> d           2.509   3.716   0.122  0.00  0.00     0.188 C 
ATOM      9  O1  <0> d           3.493   3.018   0.189  0.00  0.00    -0.647 OA
ATOM     10  O3  <0> d           2.630   5.052   0.149  0.00  0.00    -0.647 OA
ENDBRANCH   1   8
BRANCH   1  11
ATOM     11  C4  <0> d           0.478   3.544  -1.291  0.00  0.00     0.403 C 
ATOM     12  F1  <0> d          -0.788   2.958  -1.397  0.00  0.00    -0.170 F 
ATOM     13  F2  <0> d           0.349   4.937  -1.282  0.00  0.00    -0.170 F 
ATOM     14  F3  <0> d           1.264   3.155  -2.381  0.00  0.00    -0.170 F 
ENDBRANCH   1  11
TORSDOF 4
