REMARK  2 active torsions:
REMARK  status: ('A' for Active; 'I' for Inactive)
REMARK    1  A    between atoms: C1_1  and  C2_2 
REMARK    2  A    between atoms: C8_11  and  O1_14 
ROOT
ATOM      1  C2  <0> d          -1.490   3.616   0.036  0.00  0.00    -0.051 C 
ATOM      2  H1  <0> d          -0.807   4.228   0.626  0.00  0.00     0.040 H 
ATOM      3  C3  <0> d          -0.773   3.123  -1.223  0.00  0.00    -0.058 C 
ATOM      4  C4  <0> d          -0.753   1.593  -1.232  0.00  0.00    -0.051 C 
ATOM      5  H2  <0> d          -0.242   1.241  -2.128  0.00  0.00     0.040 H 
ATOM      6  C5  <0> d          -0.013   1.086   0.008  0.00  0.00    -0.061 C 
ATOM      7  C6  <0> d          -0.729   1.579   1.267  0.00  0.00    -0.059 C 
ATOM      8  C7  <0> d          -1.946   2.415   0.867  0.00  0.00    -0.026 C 
ATOM      9  H3  <0> d          -2.457   2.767   1.763  0.00  0.00     0.044 H 
ATOM     10  C8  <0> d          -2.904   1.556   0.038  0.00  0.00     0.040 C 
ATOM     11  H4  <0> d          -3.772   2.152  -0.247  0.00  0.00     0.083 H 
ATOM     12  C9  <0> d          -2.188   1.063  -1.221  0.00  0.00    -0.037 C 
ATOM     13  H8  <0> d           0.249   3.500  -1.231  0.00  0.00     0.034 H 
ATOM     14  H9  <0> d          -1.301   3.484  -2.106  0.00  0.00     0.034 H 
ATOM     15  H10 <0> d           0.002  -0.004   0.002  0.00  0.00     0.033 H 
ATOM     16  H11 <0> d           1.010   1.463   0.000  0.00  0.00     0.033 H 
ATOM     17  H12 <0> d          -1.054   0.724   1.859  0.00  0.00     0.033 H 
ATOM     18  H13 <0> d          -0.046   2.191   1.857  0.00  0.00     0.033 H 
ATOM     19  H14 <0> d          -2.715   1.424  -2.104  0.00  0.00     0.037 H 
ATOM     20  H15 <0> d          -2.173  -0.027  -1.227  0.00  0.00     0.037 H 
ENDROOT
BRANCH   1  21
ATOM     21  C1  <0> d          -2.707   4.452  -0.365  0.00  0.00    -0.072 C 
ATOM     22  H5  <0> d          -3.217   4.803   0.532  0.00  0.00     0.028 H 
ATOM     23  H6  <0> d          -2.382   5.307  -0.957  0.00  0.00     0.028 H 
ATOM     24  H7  <0> d          -3.389   3.840  -0.955  0.00  0.00     0.028 H 
ENDBRANCH   1  21
BRANCH  10  25
ATOM     25  O1  <0> d          -3.331   0.435   0.814  0.00  0.00    -0.395 OA
ATOM     26  H16 <0> d          -3.942  -0.154   0.351  0.00  0.00     0.210 HD
ENDBRANCH  10  25
TORSDOF 2
