REMARK  7 active torsions:
REMARK  status: ('A' for Active; 'I' for Inactive)
REMARK    1  A    between atoms: C1_1  and  C2_2 
REMARK    2  A    between atoms: C2_2  and  O1_3 
REMARK    3  A    between atoms: O1_3  and  C3_4 
REMARK    4  A    between atoms: C3_4  and  C4_6 
REMARK    5  A    between atoms: C3_4  and  C5_7 
REMARK       I    between atoms: C5_7  and  N1_9 
REMARK    6  A    between atoms: N1_9  and  C6_10 
REMARK    7  A    between atoms: N1_9  and  C7_11 
ROOT
ATOM      1  C3  <0> d          -1.432  -1.929   0.007  0.00  0.00     0.112 C 
ATOM      2  H1  <0> d          -0.500  -1.894   0.571  0.00  0.00     0.097 H 
ENDROOT
BRANCH   1   3
ATOM      3  O1  <0> d          -1.800  -0.606  -0.389  0.00  0.00    -0.377 OA
BRANCH   3   4
ATOM      4  C2  <0> d          -0.689   0.269  -0.594  0.00  0.00     0.017 C 
ATOM      5  H5  <0> d          -0.048  -0.135  -1.378  0.00  0.00     0.073 H 
ATOM      6  H6  <0> d          -0.119   0.357   0.331  0.00  0.00     0.073 H 
BRANCH   4   7
ATOM      7  C1  <0> d          -1.198   1.650  -1.013  0.00  0.00    -0.056 C 
ATOM      8  H2  <0> d          -0.350   2.317  -1.169  0.00  0.00     0.030 H 
ATOM      9  H3  <0> d          -1.767   1.562  -1.938  0.00  0.00     0.030 H 
ATOM     10  H4  <0> d          -1.838   2.054  -0.229  0.00  0.00     0.030 H 
ENDBRANCH   4   7
ENDBRANCH   3   4
ENDBRANCH   1   3
BRANCH   1  11
ATOM     11  C4  <0> d          -1.244  -2.800  -1.237  0.00  0.00    -0.044 C 
ATOM     12  H7  <0> d          -2.139  -2.747  -1.856  0.00  0.00     0.031 H 
ATOM     13  H8  <0> d          -0.386  -2.439  -1.806  0.00  0.00     0.031 H 
ATOM     14  H9  <0> d          -1.071  -3.832  -0.934  0.00  0.00     0.031 H 
ENDBRANCH   1  11
BRANCH   1  15
ATOM     15  C5  <0> d          -2.520  -2.515   0.870  0.00  0.00     0.247 C 
ATOM     16  O2  <0> d          -3.620  -2.005   0.890  0.00  0.00    -0.271 OA
ATOM     17  N1  <0> d          -2.269  -3.607   1.621  0.00  0.00    -0.359 N 
BRANCH  17  18
ATOM     18  C6  <0> d          -3.355  -4.246   2.368  0.00  0.00    -0.017 C 
ATOM     19  H10 <0> d          -3.826  -5.007   1.745  0.00  0.00     0.056 H 
ATOM     20  H11 <0> d          -2.952  -4.712   3.268  0.00  0.00     0.056 H 
ATOM     21  H12 <0> d          -4.095  -3.496   2.648  0.00  0.00     0.056 H 
ENDBRANCH  17  18
BRANCH  17  22
ATOM     22  C7  <0> d          -0.912  -4.153   1.689  0.00  0.00    -0.017 C 
ATOM     23  H13 <0> d          -0.345  -3.623   2.454  0.00  0.00     0.056 H 
ATOM     24  H14 <0> d          -0.959  -5.213   1.941  0.00  0.00     0.056 H 
ATOM     25  H15 <0> d          -0.422  -4.031   0.723  0.00  0.00     0.056 H 
ENDBRANCH  17  22
ENDBRANCH   1  15
TORSDOF 7
