REMARK  1 active torsions:
REMARK  status: ('A' for Active; 'I' for Inactive)
REMARK    1  A    between atoms: C1_1  and  C2_2 
ROOT
ATOM      1  C2  <0> d           0.002  -0.004   0.002  0.00  0.00    -0.044 A 
ATOM      2  C3  <0> d          -0.017   1.383   0.010  0.00  0.00    -0.073 A 
ATOM      3  C4  <0> d           1.191   2.060   0.002  0.00  0.00    -0.044 A 
ATOM      4  C5  <0> d           2.378   1.328  -0.013  0.00  0.00     0.136 A 
ATOM      5  N1  <0> d           2.352   0.001  -0.020  0.00  0.00    -0.249 NA
ATOM      6  C6  <0> d           1.218  -0.667  -0.013  0.00  0.00     0.009 A 
ATOM      7  C7  <0> d           3.635   2.014  -0.021  0.00  0.00     0.119 C 
ATOM      8  N2  <0> d           4.633   2.558  -0.027  0.00  0.00    -0.190 NA
ATOM      9  H4  <0> d          -0.952   1.922   0.017  0.00  0.00     0.084 H 
ATOM     10  H5  <0> d           1.214   3.140   0.007  0.00  0.00     0.088 H 
ATOM     11  H6  <0> d           1.235  -1.747  -0.019  0.00  0.00     0.115 H 
ENDROOT
BRANCH   1  12
ATOM     12  C1  <0> d          -1.288  -0.782   0.010  0.00  0.00    -0.050 C 
ATOM     13  H1  <0> d          -1.609  -0.964  -1.016  0.00  0.00     0.033 H 
ATOM     14  H2  <0> d          -1.135  -1.735   0.517  0.00  0.00     0.033 H 
ATOM     15  H3  <0> d          -2.054  -0.210   0.534  0.00  0.00     0.033 H 
ENDBRANCH   1  12
TORSDOF 1
