REMARK  2 active torsions:
REMARK  status: ('A' for Active; 'I' for Inactive)
REMARK    1  A    between atoms: C1_1  and  C2_2 
REMARK    2  A    between atoms: C10_11  and  N2_12 
ROOT
ATOM      1  C2  <0> d          -2.393  -0.030   0.025  0.00  0.00    -0.034 A 
ATOM      2  C3  <0> d          -1.215  -0.709   0.010  0.00  0.00    -0.046 A 
ATOM      3  C4  <0> d           0.002  -0.004   0.002  0.00  0.00     0.067 A 
ATOM      4  C5  <0> d          -0.017   1.413   0.010  0.00  0.00    -0.005 A 
ATOM      5  C6  <0> d           1.205   2.113   0.002  0.00  0.00    -0.069 A 
ATOM      6  C7  <0> d           2.362   1.388  -0.013  0.00  0.00    -0.065 A 
ATOM      7  C8  <0> d           2.311  -0.004  -0.019  0.00  0.00     0.003 A 
ATOM      8  N1  <0> d           1.171  -0.652  -0.012  0.00  0.00    -0.260 NA
ATOM      9  C9  <0> d          -1.245   2.092   0.031  0.00  0.00    -0.045 A 
ATOM     10  C10 <0> d          -2.418   1.369   0.033  0.00  0.00     0.032 A 
ATOM     11  H4  <0> d          -1.214  -1.789   0.004  0.00  0.00     0.088 H 
ATOM     12  H5  <0> d           1.226   3.193   0.007  0.00  0.00     0.085 H 
ATOM     13  H6  <0> d           3.317   1.894  -0.019  0.00  0.00     0.085 H 
ATOM     14  H7  <0> d           3.234  -0.564  -0.031  0.00  0.00     0.114 H 
ATOM     15  H8  <0> d          -1.270   3.171   0.037  0.00  0.00     0.088 H 
ENDROOT
BRANCH   1  16
ATOM     16  C1  <0> d          -3.690  -0.797   0.033  0.00  0.00    -0.049 C 
ATOM     17  H1  <0> d          -3.993  -0.987   1.063  0.00  0.00     0.033 H 
ATOM     18  H2  <0> d          -4.461  -0.212  -0.470  0.00  0.00     0.033 H 
ATOM     19  H3  <0> d          -3.556  -1.745  -0.487  0.00  0.00     0.033 H 
ENDBRANCH   1  16
BRANCH  10  20
ATOM     20  N2  <0> d          -3.644   2.039   0.049  0.00  0.00    -0.399 N 
ATOM     21  H9  <0> d          -4.472   1.534   0.055  0.00  0.00     0.156 HD
ATOM     22  H10 <0> d          -3.666   3.009   0.055  0.00  0.00     0.156 HD
ENDBRANCH  10  20
TORSDOF 2
