REMARK  5 active torsions:
REMARK  status: ('A' for Active; 'I' for Inactive)
REMARK    1  A    between atoms: C1_1  and  C2_2 
REMARK    2  A    between atoms: C2_2  and  C3_3 
REMARK    3  A    between atoms: C7_9  and  O2_11 
REMARK    4  A    between atoms: O2_11  and  C8_12 
REMARK    5  A    between atoms: C8_12  and  C9_13 
ROOT
ATOM      1  C3  <0> d           0.718  -0.497  -1.257  0.00  0.00    -0.003 C 
ATOM      2  H1  <0> d           0.247  -0.067  -2.140  0.00  0.00     0.047 H 
ATOM      3  C4  <0> d           2.194  -0.089  -1.206  0.00  0.00    -0.040 C 
ATOM      4  C5  <0> d           2.960  -0.844  -2.258  0.00  0.00    -0.081 C 
ATOM      5  C6  <0> d           2.491  -1.923  -2.828  0.00  0.00     0.012 C 
ATOM      6  O1  <0> d           1.283  -2.453  -2.536  0.00  0.00    -0.332 OA
ATOM      7  C7  <0> d           0.647  -2.029  -1.327  0.00  0.00     0.139 C 
ATOM      8  H2  <0> d           1.164  -2.461  -0.470  0.00  0.00     0.130 H 
ATOM      9  H8  <0> d           2.282   0.982  -1.391  0.00  0.00     0.039 H 
ATOM     10  H9  <0> d           2.602  -0.322  -0.222  0.00  0.00     0.039 H 
ATOM     11  H10 <0> d           3.933  -0.481  -2.554  0.00  0.00     0.079 H 
ATOM     12  H11 <0> d           3.101  -2.416  -3.571  0.00  0.00     0.122 H 
ENDROOT
BRANCH   7  13
ATOM     13  O2  <0> d          -0.719  -2.449  -1.327  0.00  0.00    -0.361 OA
BRANCH  13  14
ATOM     14  C8  <0> d          -0.895  -3.857  -1.163  0.00  0.00     0.019 C 
ATOM     15  H12 <0> d          -0.396  -4.383  -1.977  0.00  0.00     0.073 H 
ATOM     16  H13 <0> d          -0.463  -4.169  -0.211  0.00  0.00     0.073 H 
BRANCH  14  17
ATOM     17  C9  <0> d          -2.388  -4.190  -1.178  0.00  0.00    -0.056 C 
ATOM     18  H14 <0> d          -2.886  -3.665  -0.364  0.00  0.00     0.030 H 
ATOM     19  H15 <0> d          -2.820  -3.879  -2.130  0.00  0.00     0.030 H 
ATOM     20  H16 <0> d          -2.522  -5.265  -1.053  0.00  0.00     0.030 H 
ENDBRANCH  14  17
ENDBRANCH  13  14
ENDBRANCH   7  13
BRANCH   1  21
ATOM     21  C2  <0> d           0.002  -0.004   0.002  0.00  0.00    -0.060 C 
ATOM     22  H6  <0> d           0.529  -0.365   0.885  0.00  0.00     0.033 H 
ATOM     23  H7  <0> d          -1.020  -0.381   0.010  0.00  0.00     0.033 H 
BRANCH  21  24
ATOM     24  C1  <0> d          -0.019   1.526   0.010  0.00  0.00    -0.076 C 
ATOM     25  H3  <0> d           1.004   1.903   0.003  0.00  0.00     0.027 H 
ATOM     26  H4  <0> d          -0.546   1.887  -0.873  0.00  0.00     0.027 H 
ATOM     27  H5  <0> d          -0.529   1.877   0.907  0.00  0.00     0.027 H 
ENDBRANCH  21  24
ENDBRANCH   1  21
TORSDOF 5
