REMARK  4 active torsions:
REMARK  status: ('A' for Active; 'I' for Inactive)
REMARK    1  A    between atoms: C1_1  and  C2_2 
REMARK    2  A    between atoms: C2_2  and  C3_3 
REMARK    3  A    between atoms: C2_2  and  C4_4 
REMARK    4  A    between atoms: C6_6  and  N3_10 
ROOT
ATOM      1  C4  <0> d          -0.749   3.086   1.275  0.00  0.00     0.035 A 
ATOM      2  C5  <0> d          -1.749   3.866   1.746  0.00  0.00    -0.014 A 
ATOM      3  C6  <0> d          -1.369   5.207   1.568  0.00  0.00     0.143 A 
ATOM      4  N1  <0> d          -0.185   5.222   1.002  0.00  0.00    -0.157 NA
ATOM      5  N2  <0> d           0.224   3.897   0.809  0.00  0.00    -0.280 N 
ATOM      6  H1  <0> d           1.086   3.602   0.397  0.00  0.00     0.189 HD
ATOM      7  H9  <0> d          -2.674   3.520   2.183  0.00  0.00     0.092 H 
ENDROOT
BRANCH   1   8
ATOM      8  C2  <0> d          -0.729   1.579   1.267  0.00  0.00    -0.019 C 
ATOM      9  H5  <0> d          -1.751   1.202   1.275  0.00  0.00     0.048 H 
BRANCH   8  10
ATOM     10  C1  <0> d          -0.013   1.086   0.008  0.00  0.00    -0.068 C 
ATOM     11  H2  <0> d           0.002  -0.004   0.002  0.00  0.00     0.028 H 
ATOM     12  H3  <0> d           1.010   1.463   0.000  0.00  0.00     0.028 H 
ATOM     13  H4  <0> d          -0.540   1.447  -0.875  0.00  0.00     0.028 H 
ENDBRANCH   8  10
BRANCH   8  14
ATOM     14  C3  <0> d           0.011   1.072   2.506  0.00  0.00    -0.068 C 
ATOM     15  H6  <0> d           1.034   1.450   2.499  0.00  0.00     0.028 H 
ATOM     16  H7  <0> d          -0.499   1.424   3.403  0.00  0.00     0.028 H 
ATOM     17  H8  <0> d           0.026  -0.018   2.500  0.00  0.00     0.028 H 
ENDBRANCH   8  14
ENDBRANCH   1   8
BRANCH   3  18
ATOM     18  N3  <0> d          -2.124   6.330   1.927  0.00  0.00    -0.383 N 
ATOM     19  H10 <0> d          -1.777   7.220   1.760  0.00  0.00     0.157 HD
ATOM     20  H11 <0> d          -2.993   6.217   2.342  0.00  0.00     0.157 HD
ENDBRANCH   3  18
TORSDOF 4
