REMARK  6 active torsions:
REMARK  status: ('A' for Active; 'I' for Inactive)
REMARK    1  A    between atoms: C1_1  and  O1_2 
REMARK    2  A    between atoms: O1_2  and  C2_3 
REMARK    3  A    between atoms: C2_3  and  C3_5 
REMARK    4  A    between atoms: C2_3  and  O4_9 
REMARK    5  A    between atoms: C3_5  and  O3_7 
REMARK    6  A    between atoms: O3_7  and  C4_8 
ROOT
ATOM      1  C2  <0> d          -0.013   1.086   0.008  0.00  0.00     0.213 C 
ATOM      2  H1  <0> d           0.002  -0.004   0.002  0.00  0.00     0.145 H 
ENDROOT
BRANCH   1   3
ATOM      3  O1  <0> d          -0.704   1.559  -1.150  0.00  0.00    -0.357 OA
BRANCH   3   4
ATOM      4  C1  <0> d          -2.023   1.030  -1.296  0.00  0.00     0.007 C 
ATOM      5  H2  <0> d          -1.972  -0.056  -1.373  0.00  0.00     0.066 H 
ATOM      6  H3  <0> d          -2.623   1.305  -0.428  0.00  0.00     0.066 H 
ATOM      7  H4  <0> d          -2.480   1.437  -2.198  0.00  0.00     0.066 H 
ENDBRANCH   3   4
ENDBRANCH   1   3
BRANCH   1   8
ATOM      8  C3  <0> d           1.401   1.607  -0.003  0.00  0.00     0.314 C 
ATOM      9  O2  <0> d           1.926   1.908  -1.049  0.00  0.00    -0.260 OA
BRANCH   8  10
ATOM     10  O3  <0> d           2.077   1.738   1.150  0.00  0.00    -0.323 OA
BRANCH  10  11
ATOM     11  C4  <0> d           3.434   2.247   1.064  0.00  0.00     0.013 C 
ATOM     12  H5  <0> d           3.422   3.241   0.617  0.00  0.00     0.067 H 
ATOM     13  H6  <0> d           3.865   2.303   2.063  0.00  0.00     0.067 H 
ATOM     14  H7  <0> d           4.034   1.578   0.447  0.00  0.00     0.067 H 
ENDBRANCH  10  11
ENDBRANCH   8  10
ENDBRANCH   1   8
BRANCH   1  15
ATOM     15  O4  <0> d          -0.682   1.547   1.184  0.00  0.00    -0.363 OA
ATOM     16  H8  <0> d          -0.732   2.510   1.256  0.00  0.00     0.213 HD
ENDBRANCH   1  15
TORSDOF 6
