REMARK  3 active torsions:
REMARK  status: ('A' for Active; 'I' for Inactive)
REMARK    1  A    between atoms: C2_2  and  C4_7 
REMARK    2  A    between atoms: C4_7  and  C5_8 
REMARK    3  A    between atoms: C5_8  and  C6_9 
ROOT
ATOM      1  C4  <0> d           0.002  -0.004   0.002  0.00  0.00    -0.016 C 
ATOM      2  H4  <0> d          -0.937  -0.381  -0.430  0.00  0.00     0.043 H 
ATOM      3  H5  <0> d           0.851  -0.356  -0.603  0.00  0.00     0.043 H 
ENDROOT
BRANCH   1   4
ATOM      4  C2  <0> d          -0.018   1.503   0.010  0.00  0.00     0.028 A 
ATOM      5  C1  <0> d           1.052   2.320   0.004  0.00  0.00     0.025 A 
ATOM      6  N2  <0> d           0.608   3.586   0.015  0.00  0.00    -0.254 NA
ATOM      7  H2  <0> d           2.087   2.011  -0.006  0.00  0.00     0.117 H 
ATOM      8  C3  <0> d          -0.697   3.583   0.027  0.00  0.00     0.063 A 
ATOM      9  N1  <0> d          -1.128   2.304   0.019  0.00  0.00    -0.353 N 
ATOM     10  H3  <0> d          -1.328   4.460   0.036  0.00  0.00     0.143 H 
ATOM     11  H1  <0> d          -2.132   1.853   0.019  0.00  0.00     0.166 HD
ENDBRANCH   1   4
BRANCH   1  12
ATOM     12  C5  <0> d           0.148  -0.520   1.435  0.00  0.00     0.021 C 
ATOM     13  H6  <0> d           1.087  -0.143   1.867  0.00  0.00     0.049 H 
ATOM     14  H7  <0> d          -0.701  -0.168   2.039  0.00  0.00     0.049 H 
BRANCH  12  15
ATOM     15  C6  <0> d           0.168  -2.027   1.427  0.00  0.00     0.172 C 
ATOM     16  O1  <0> d           0.076  -2.627   0.382  0.00  0.00    -0.648 OA
ATOM     17  O2  <0> d           0.289  -2.703   2.580  0.00  0.00    -0.648 OA
ENDBRANCH  12  15
ENDBRANCH   1  12
TORSDOF 3
