REMARK  0 active torsions:
REMARK  status: ('A' for Active; 'I' for Inactive)
ROOT
ATOM      1  C1  <0> d           0.682   3.296   0.011  0.00  0.00    -0.045 C 
ATOM      2  C2  <0> d          -0.804   3.323   0.441  0.00  0.00    -0.006 C 
ATOM      3  C3  <0> d          -1.265   1.913   0.018  0.00  0.00     0.183 C 
ATOM      4  C4  <0> d          -0.013   1.076   0.008  0.00  0.00    -0.048 C 
ATOM      5  C5  <0> d           1.054   1.831   0.002  0.00  0.00    -0.101 C 
ATOM      6  O1  <0> d          -2.211   1.402   0.964  0.00  0.00    -0.349 OA
ATOM      7  C6  <0> d          -3.505   1.675   0.372  0.00  0.00     0.043 C 
ATOM      8  C7  <0> d          -3.215   1.466  -1.135  0.00  0.00     0.043 C 
ATOM      9  O2  <0> d          -1.863   1.953  -1.278  0.00  0.00    -0.349 OA
ATOM     10  H1  <0> d           1.296   3.839   0.730  0.00  0.00     0.039 H 
ATOM     11  H2  <0> d           0.797   3.723  -0.986  0.00  0.00     0.039 H 
ATOM     12  H3  <0> d          -0.897   3.463   1.518  0.00  0.00     0.042 H 
ATOM     13  H4  <0> d          -1.355   4.092  -0.101  0.00  0.00     0.042 H 
ATOM     14  H5  <0> d           0.002  -0.004   0.002  0.00  0.00     0.084 H 
ATOM     15  H6  <0> d           2.067   1.458  -0.008  0.00  0.00     0.076 H 
ATOM     16  H7  <0> d          -3.817   2.700   0.571  0.00  0.00     0.077 H 
ATOM     17  H8  <0> d          -4.254   0.966   0.727  0.00  0.00     0.077 H 
ATOM     18  H9  <0> d          -3.902   2.052  -1.745  0.00  0.00     0.077 H 
ATOM     19  H10 <0> d          -3.273   0.410  -1.399  0.00  0.00     0.077 H 
ENDROOT
TORSDOF 0
