REMARK  4 active torsions:
REMARK  status: ('A' for Active; 'I' for Inactive)
REMARK    1  A    between atoms: C1_1  and  C2_2 
REMARK    2  A    between atoms: C2_2  and  C3_4 
REMARK    3  A    between atoms: C2_2  and  C7_10 
REMARK    4  A    between atoms: C3_4  and  N1_5 
ROOT
ATOM      1  C3  <0> d          -0.013   1.086   0.008  0.00  0.00     0.012 C 
ATOM      2  H5  <0> d           1.019   1.467   0.000  0.00  0.00     0.066 H 
ATOM      3  H6  <0> d           0.002  -0.014   0.002  0.00  0.00     0.066 H 
ENDROOT
BRANCH   1   4
ATOM      4  C2  <0> d          -0.729   1.579   1.267  0.00  0.00     0.043 C 
ATOM      5  H1  <0> d          -1.783   1.266   1.244  0.00  0.00     0.058 H 
BRANCH   4   6
ATOM      6  C1  <0> d          -0.641   3.105   1.339  0.00  0.00    -0.062 C 
ATOM      7  H2  <0> d          -1.156   3.460   2.244  0.00  0.00     0.028 H 
ATOM      8  H3  <0> d          -1.119   3.542   0.450  0.00  0.00     0.028 H 
ATOM      9  H4  <0> d           0.415   3.410   1.374  0.00  0.00     0.028 H 
ENDBRANCH   4   6
BRANCH   4  10
ATOM     10  C7  <0> d          -0.074   0.981   2.485  0.00  0.00     0.178 C 
ATOM     11  O1  <0> d           0.869   0.235   2.359  0.00  0.00    -0.648 OA
ATOM     12  O2  <0> d          -0.538   1.275   3.709  0.00  0.00    -0.648 OA
ENDBRANCH   4  10
ENDBRANCH   1   4
BRANCH   1  13
ATOM     13  N1  <0> d          -0.721   1.571  -1.179  0.00  0.00    -0.349 N 
ATOM     14  C6  <0> d          -0.493   2.732  -1.829  0.00  0.00     0.065 A 
ATOM     15  N2  <0> d          -1.319   2.817  -2.836  0.00  0.00    -0.255 NA
ATOM     16  H9  <0> d           0.250   3.469  -1.561  0.00  0.00     0.143 H 
ATOM     17  C5  <0> d          -2.096   1.724  -2.864  0.00  0.00     0.018 A 
ATOM     18  C4  <0> d          -1.734   0.929  -1.839  0.00  0.00    -0.003 A 
ATOM     19  H8  <0> d          -2.873   1.517  -3.585  0.00  0.00     0.117 H 
ATOM     20  H7  <0> d          -2.163  -0.029  -1.585  0.00  0.00     0.113 H 
ENDBRANCH   1  13
TORSDOF 4
