REMARK  2 active torsions:
REMARK  status: ('A' for Active; 'I' for Inactive)
REMARK    1  A    between atoms: C2_2  and  O4_11 
REMARK    2  A    between atoms: C3_3  and  C6_8 
ROOT
ATOM      1  C1  <0> d           2.476   5.119   0.005  0.00  0.00     0.002 A 
ATOM      2  C2  <0> d           2.479   3.731  -0.002  0.00  0.00     0.088 A 
ATOM      3  C3  <0> d           1.238   3.062   0.007  0.00  0.00     0.089 A 
ATOM      4  C4  <0> d           0.065   3.818   0.016  0.00  0.00    -0.002 A 
ATOM      5  N1  <0> d           0.114   5.133   0.028  0.00  0.00    -0.343 N 
ATOM      6  C5  <0> d           1.264   5.793   0.020  0.00  0.00     0.181 A 
ATOM      7  O1  <0> d           1.254   7.148   0.027  0.00  0.00    -0.172 OA
ATOM      8  H1  <0> d           3.406   5.668  -0.001  0.00  0.00     0.094 H 
ATOM      9  H2  <0> d          -0.893   3.318   0.018  0.00  0.00     0.113 H 
ATOM     10  H3  <0> d          -0.818   5.718   0.044  0.00  0.00     0.167 HD
ENDROOT
BRANCH   3  11
ATOM     11  C6  <0> d           1.181   1.591  -0.001  0.00  0.00     0.213 C 
ATOM     12  O2  <0> d           2.209   0.943  -0.014  0.00  0.00    -0.644 OA
ATOM     13  O3  <0> d          -0.011   0.963   0.007  0.00  0.00    -0.644 OA
ENDBRANCH   3  11
BRANCH   2  14
ATOM     14  O4  <0> d           3.643   3.038  -0.015  0.00  0.00    -0.359 OA
ATOM     15  H4  <0> d           3.629   1.938  -0.021  0.00  0.00     0.217 HD
ENDBRANCH   2  14
TORSDOF 2
