REMARK  1 active torsions:
REMARK  status: ('A' for Active; 'I' for Inactive)
REMARK    1  A    between atoms: C3_3  and  C6_8 
REMARK       I    between atoms: C6_8  and  N2_10 
ROOT
ATOM      1  C1  <0> d          -0.013   1.076   0.008  0.00  0.00    -0.065 A 
ATOM      2  C2  <0> d          -1.217   1.758   0.017  0.00  0.00    -0.062 A 
ATOM      3  C3  <0> d          -1.187   3.157   0.029  0.00  0.00     0.089 A 
ATOM      4  C4  <0> d           0.053   3.806   0.021  0.00  0.00     0.225 A 
ATOM      5  N1  <0> d           1.173   3.109   0.007  0.00  0.00    -0.232 NA
ATOM      6  C5  <0> d           1.172   1.790   0.001  0.00  0.00     0.005 A 
ATOM      7  F1  <0> d           0.103   5.156   0.028  0.00  0.00    -0.183 F 
ATOM      8  H1  <0> d           0.002  -0.004   0.002  0.00  0.00     0.085 H 
ATOM      9  H2  <0> d          -2.155   1.224   0.019  0.00  0.00     0.085 H 
ATOM     10  H3  <0> d           2.112   1.258  -0.011  0.00  0.00     0.114 H 
ENDROOT
BRANCH   3  11
ATOM     11  C6  <0> d          -2.442   3.935   0.045  0.00  0.00     0.254 C 
ATOM     12  O1  <0> d          -2.404   5.150   0.052  0.00  0.00    -0.268 OA
ATOM     13  N2  <0> d          -3.630   3.298   0.053  0.00  0.00    -0.366 N 
ATOM     14  H4  <0> d          -3.660   2.329   0.049  0.00  0.00     0.159 HD
ATOM     15  H5  <0> d          -4.454   3.809   0.064  0.00  0.00     0.159 HD
ENDBRANCH   3  11
TORSDOF 1
