REMARK  1 active torsions:
REMARK  status: ('A' for Active; 'I' for Inactive)
REMARK    1  A    between atoms: C1_1  and  C2_2 
ROOT
ATOM      1  C2  <0> d          -0.136   4.150   0.025  0.00  0.00     0.030 A 
ATOM      2  C3  <0> d           1.105   3.538   0.010  0.00  0.00    -0.058 A 
ATOM      3  C4  <0> d           1.179   2.156   0.002  0.00  0.00    -0.060 A 
ATOM      4  C5  <0> d          -0.017   1.428   0.010  0.00  0.00     0.062 A 
ATOM      5  C6  <0> d          -1.229   2.121   0.019  0.00  0.00     0.022 A 
ATOM      6  N1  <0> d          -1.246   3.438   0.032  0.00  0.00    -0.264 NA
ATOM      7  C7  <0> d           0.002  -0.004   0.002  0.00  0.00     0.101 C 
ATOM      8  N2  <0> d           0.018  -1.140  -0.004  0.00  0.00    -0.191 NA
ATOM      9  H4  <0> d           2.007   4.133   0.005  0.00  0.00     0.086 H 
ATOM     10  H5  <0> d           2.134   1.653  -0.009  0.00  0.00     0.086 H 
ATOM     11  H6  <0> d          -2.159   1.573   0.021  0.00  0.00     0.117 H 
ENDROOT
BRANCH   1  12
ATOM     12  C1  <0> d          -0.220   5.654   0.034  0.00  0.00    -0.035 C 
ATOM     13  H1  <0> d          -0.249   6.023  -0.992  0.00  0.00     0.035 H 
ATOM     14  H2  <0> d          -1.124   5.965   0.557  0.00  0.00     0.035 H 
ATOM     15  H3  <0> d           0.653   6.064   0.542  0.00  0.00     0.035 H 
ENDBRANCH   1  12
TORSDOF 1
