REMARK  2 active torsions:
REMARK  status: ('A' for Active; 'I' for Inactive)
REMARK    1  A    between atoms: C1_1  and  O1_2 
REMARK    2  A    between atoms: O1_2  and  C2_3 
ROOT
ATOM      1  C2  <0> d          -1.245   3.138   0.031  0.00  0.00     0.069 A 
ATOM      2  C3  <0> d          -1.216   1.748   0.017  0.00  0.00    -0.049 A 
ATOM      3  C4  <0> d          -0.013   1.076   0.008  0.00  0.00    -0.059 A 
ATOM      4  C5  <0> d           1.187   1.789   0.000  0.00  0.00     0.065 A 
ATOM      5  C6  <0> d           1.160   3.199   0.008  0.00  0.00     0.068 A 
ATOM      6  C7  <0> d          -0.063   3.864   0.023  0.00  0.00    -0.029 A 
ATOM      7  C8  <0> d           2.384   3.942   0.001  0.00  0.00     0.101 C 
ATOM      8  N1  <0> d           3.355   4.532  -0.005  0.00  0.00    -0.191 NA
ATOM      9  C9  <0> d           2.438   1.093  -0.016  0.00  0.00     0.101 C 
ATOM     10  N2  <0> d           3.430   0.541  -0.029  0.00  0.00    -0.191 NA
ATOM     11  H4  <0> d          -2.142   1.192   0.018  0.00  0.00     0.087 H 
ATOM     12  H5  <0> d           0.002  -0.004   0.002  0.00  0.00     0.086 H 
ATOM     13  H6  <0> d          -0.091   4.943   0.029  0.00  0.00     0.090 H 
ENDROOT
BRANCH   1  14
ATOM     14  O1  <0> d          -2.437   3.789   0.046  0.00  0.00    -0.356 OA
BRANCH  14  15
ATOM     15  C1  <0> d          -3.616   2.982   0.053  0.00  0.00     0.010 C 
ATOM     16  H1  <0> d          -4.496   3.625   0.065  0.00  0.00     0.066 H 
ATOM     17  H2  <0> d          -3.635   2.358  -0.841  0.00  0.00     0.066 H 
ATOM     18  H3  <0> d          -3.618   2.348   0.939  0.00  0.00     0.066 H 
ENDBRANCH  14  15
ENDBRANCH   1  14
TORSDOF 2
