REMARK  7 active torsions:
REMARK  status: ('A' for Active; 'I' for Inactive)
REMARK    1  A    between atoms: C1_1  and  C2_2 
REMARK    2  A    between atoms: C2_2  and  C3_3 
REMARK    3  A    between atoms: C3_3  and  C4_5 
REMARK    4  A    between atoms: C3_3  and  C5_6 
REMARK    5  A    between atoms: C5_6  and  C6_8 
REMARK    6  A    between atoms: C5_6  and  C8_10 
REMARK    7  A    between atoms: C6_8  and  C7_9 
REMARK       I    between atoms: C8_10  and  N1_12 
ROOT
ATOM      1  C5  <0> d          -0.064   0.986   2.489  0.00  0.00     0.026 C 
ATOM      2  H2  <0> d           0.933   1.372   2.273  0.00  0.00     0.055 H 
ENDROOT
BRANCH   1   3
ATOM      3  C3  <0> d          -1.053   1.519   1.451  0.00  0.00    -0.046 C 
ATOM      4  H1  <0> d          -2.049   1.133   1.667  0.00  0.00     0.040 H 
BRANCH   3   5
ATOM      5  C2  <0> d          -0.621   1.064   0.055  0.00  0.00    -0.065 C 
ATOM      6  H6  <0> d          -0.520  -0.021   0.042  0.00  0.00     0.033 H 
ATOM      7  H7  <0> d           0.335   1.522  -0.197  0.00  0.00     0.033 H 
BRANCH   5   8
ATOM      8  C1  <0> d          -1.676   1.490  -0.969  0.00  0.00    -0.076 C 
ATOM      9  H3  <0> d          -2.632   1.032  -0.717  0.00  0.00     0.027 H 
ATOM     10  H4  <0> d          -1.777   2.575  -0.955  0.00  0.00     0.027 H 
ATOM     11  H5  <0> d          -1.368   1.166  -1.963  0.00  0.00     0.027 H 
ENDBRANCH   5   8
ENDBRANCH   3   5
BRANCH   3  12
ATOM     12  C4  <0> d          -1.075   3.048   1.505  0.00  0.00    -0.072 C 
ATOM     13  H8  <0> d          -1.383   3.372   2.499  0.00  0.00     0.028 H 
ATOM     14  H9  <0> d          -0.079   3.434   1.289  0.00  0.00     0.028 H 
ATOM     15  H10 <0> d          -1.780   3.427   0.765  0.00  0.00     0.028 H 
ENDBRANCH   3  12
ENDBRANCH   1   3
BRANCH   1  16
ATOM     16  C6  <0> d          -0.495   1.441   3.885  0.00  0.00    -0.057 C 
ATOM     17  H11 <0> d          -0.601   2.526   3.897  0.00  0.00     0.033 H 
ATOM     18  H12 <0> d          -1.450   0.980   4.138  0.00  0.00     0.033 H 
BRANCH  16  19
ATOM     19  C7  <0> d           0.562   1.020   4.908  0.00  0.00    -0.076 C 
ATOM     20  H13 <0> d           0.598  -0.067   4.967  0.00  0.00     0.027 H 
ATOM     21  H14 <0> d           1.536   1.400   4.601  0.00  0.00     0.027 H 
ATOM     22  H15 <0> d           0.304   1.429   5.885  0.00  0.00     0.027 H 
ENDBRANCH  16  19
ENDBRANCH   1  16
BRANCH   1  23
ATOM     23  C8  <0> d          -0.042  -0.520   2.436  0.00  0.00     0.219 C 
ATOM     24  O1  <0> d          -0.886  -1.160   3.026  0.00  0.00    -0.273 OA
ATOM     25  N1  <0> d           0.916  -1.155   1.732  0.00  0.00    -0.370 N 
ATOM     26  H16 <0> d           1.633  -0.647   1.320  0.00  0.00     0.159 HD
ATOM     27  H17 <0> d           0.889  -2.120   1.638  0.00  0.00     0.159 HD
ENDBRANCH   1  23
TORSDOF 7
