REMARK  1 active torsions:
REMARK  status: ('A' for Active; 'I' for Inactive)
REMARK    1  A    between atoms: C1_1  and  C2_2 
ROOT
ATOM      1  C2  <0> d           2.738   3.603  -0.004  0.00  0.00    -0.044 A 
ATOM      2  C3  <0> d           3.365   2.354  -0.017  0.00  0.00    -0.050 A 
ATOM      3  C4  <0> d           2.364   1.398  -0.013  0.00  0.00     0.038 A 
ATOM      4  C5  <0> d           2.394  -0.013  -0.021  0.00  0.00    -0.057 A 
ATOM      5  C6  <0> d           1.224  -0.703  -0.014  0.00  0.00    -0.080 A 
ATOM      6  C7  <0> d           0.002  -0.004   0.002  0.00  0.00    -0.068 A 
ATOM      7  C8  <0> d          -0.016   1.342   0.009  0.00  0.00    -0.015 A 
ATOM      8  N1  <0> d           1.154   2.059   0.002  0.00  0.00    -0.332 N 
ATOM      9  C9  <0> d           1.399   3.400   0.008  0.00  0.00    -0.009 A 
ATOM     10  H4  <0> d           4.428   2.170  -0.029  0.00  0.00     0.087 H 
ATOM     11  H5  <0> d           3.337  -0.538  -0.034  0.00  0.00     0.086 H 
ATOM     12  H6  <0> d           1.231  -1.783  -0.020  0.00  0.00     0.083 H 
ATOM     13  H7  <0> d          -0.928  -0.552   0.008  0.00  0.00     0.085 H 
ATOM     14  H8  <0> d          -0.962   1.864   0.017  0.00  0.00     0.112 H 
ATOM     15  H9  <0> d           0.646   4.174   0.019  0.00  0.00     0.113 H 
ENDROOT
BRANCH   1  16
ATOM     16  C1  <0> d           3.430   4.942  -0.003  0.00  0.00    -0.050 C 
ATOM     17  H1  <0> d           3.587   5.271  -1.030  0.00  0.00     0.033 H 
ATOM     18  H2  <0> d           2.812   5.670   0.521  0.00  0.00     0.033 H 
ATOM     19  H3  <0> d           4.392   4.853   0.502  0.00  0.00     0.033 H 
ENDBRANCH   1  16
TORSDOF 1
