REMARK  4 active torsions:
REMARK  status: ('A' for Active; 'I' for Inactive)
REMARK    1  A    between atoms: C1_1  and  C2_2 
REMARK    2  A    between atoms: C2_2  and  C3_4 
REMARK    3  A    between atoms: C2_2  and  C4_7 
REMARK    4  A    between atoms: C3_4  and  S1_5 
ROOT
ATOM      1  C2  <0> d           1.235   3.094   0.007  0.00  0.00     0.040 C 
ATOM      2  H1  <0> d           0.727   3.482  -0.876  0.00  0.00     0.057 H 
ENDROOT
BRANCH   1   3
ATOM      3  C1  <0> d           0.546   3.625   1.266  0.00  0.00    -0.063 C 
ATOM      4  H2  <0> d          -0.495   3.302   1.274  0.00  0.00     0.028 H 
ATOM      5  H3  <0> d           1.054   3.237   2.149  0.00  0.00     0.028 H 
ATOM      6  H4  <0> d           0.588   4.714   1.271  0.00  0.00     0.028 H 
ENDBRANCH   1   3
BRANCH   1   7
ATOM      7  C3  <0> d           2.696   3.548  -0.005  0.00  0.00     0.054 C 
ATOM      8  H5  <0> d           3.181   3.236   0.920  0.00  0.00     0.059 H 
ATOM      9  H6  <0> d           3.210   3.097  -0.854  0.00  0.00     0.059 H 
BRANCH   7  10
ATOM     10  S1  <0> d           2.767   5.355  -0.145  0.00  0.00     0.251 S 
ATOM     11  O1  <0> d           2.293   5.942   1.059  0.00  0.00    -0.212 OA
ATOM     12  O3  <0> d           4.257   5.666  -0.145  0.00  0.00    -0.212 OA
ENDBRANCH   7  10
ENDBRANCH   1   7
BRANCH   1  13
ATOM     13  C4  <0> d           1.177   1.588  -0.001  0.00  0.00     0.177 C 
ATOM     14  O2  <0> d           2.199   0.944  -0.014  0.00  0.00    -0.648 OA
ATOM     15  O4  <0> d          -0.011   0.963   0.007  0.00  0.00    -0.648 OA
ENDBRANCH   1  13
TORSDOF 4
