REMARK  4 active torsions:
REMARK  status: ('A' for Active; 'I' for Inactive)
REMARK    1  A    between atoms: C1_1  and  C2_2 
REMARK    2  A    between atoms: C5_5  and  S1_9 
REMARK    3  A    between atoms: C7_7  and  C8_8 
REMARK    4  A    between atoms: S1_9  and  C9_10 
ROOT
ATOM      1  C2  <0> d           1.176   1.783   0.000  0.00  0.00    -0.056 A 
ATOM      2  C3  <0> d          -0.013   1.076   0.008  0.00  0.00    -0.075 A 
ATOM      3  C4  <0> d          -1.218   1.749   0.017  0.00  0.00    -0.066 A 
ATOM      4  C5  <0> d          -1.236   3.139   0.031  0.00  0.00     0.000 A 
ATOM      5  C6  <0> d          -0.040   3.846   0.023  0.00  0.00    -0.060 A 
ATOM      6  C7  <0> d           1.162   3.166   0.008  0.00  0.00    -0.055 A 
ATOM      7  H4  <0> d           0.002  -0.004   0.002  0.00  0.00     0.084 H 
ATOM      8  H5  <0> d          -2.146   1.196   0.018  0.00  0.00     0.085 H 
ATOM      9  H6  <0> d          -0.050   4.926   0.029  0.00  0.00     0.086 H 
ENDROOT
BRANCH   4  10
ATOM     10  S1  <0> d          -2.772   4.002   0.049  0.00  0.00    -0.134 SA
BRANCH  10  11
ATOM     11  C9  <0> d          -4.017   2.683   0.054  0.00  0.00    -0.030 C 
ATOM     12  H10 <0> d          -3.901   2.070  -0.840  0.00  0.00     0.042 H 
ATOM     13  H11 <0> d          -3.884   2.062   0.940  0.00  0.00     0.042 H 
ATOM     14  H12 <0> d          -5.013   3.124   0.066  0.00  0.00     0.042 H 
ENDBRANCH  10  11
ENDBRANCH   4  10
BRANCH   6  15
ATOM     15  C8  <0> d           2.460   3.931   0.000  0.00  0.00    -0.051 C 
ATOM     16  H7  <0> d           2.764   4.121  -1.029  0.00  0.00     0.033 H 
ATOM     17  H8  <0> d           2.326   4.880   0.520  0.00  0.00     0.033 H 
ATOM     18  H9  <0> d           3.230   3.347   0.504  0.00  0.00     0.033 H 
ENDBRANCH   6  15
BRANCH   1  19
ATOM     19  C1  <0> d           2.490   1.044  -0.017  0.00  0.00    -0.051 C 
ATOM     20  H1  <0> d           2.797   0.872  -1.048  0.00  0.00     0.033 H 
ATOM     21  H2  <0> d           3.248   1.639   0.493  0.00  0.00     0.033 H 
ATOM     22  H3  <0> d           2.376   0.088   0.493  0.00  0.00     0.033 H 
ENDBRANCH   1  19
TORSDOF 4
