REMARK  9 active torsions:
REMARK  status: ('A' for Active; 'I' for Inactive)
REMARK    1  A    between atoms: C1_1  and  C2_2 
REMARK    2  A    between atoms: C2_2  and  C3_3 
REMARK    3  A    between atoms: C3_3  and  C4_4 
REMARK    4  A    between atoms: C4_4  and  C5_6 
REMARK    5  A    between atoms: C4_4  and  C6_7 
REMARK    6  A    between atoms: C6_7  and  C7_9 
REMARK    7  A    between atoms: C6_7  and  O1_12 
REMARK    8  A    between atoms: C7_9  and  C8_10 
REMARK    9  A    between atoms: C7_9  and  C9_11 
ROOT
ATOM      1  C4  <0> d          -0.051   0.029  -0.288  0.00  0.00    -0.032 C 
ATOM      2  H1  <0> d           0.384  -0.295  -1.233  0.00  0.00     0.043 H 
ENDROOT
BRANCH   1   3
ATOM      3  C3  <0> d           0.781  -0.523   0.872  0.00  0.00    -0.060 C 
ATOM      4  H8  <0> d           1.777  -0.081   0.847  0.00  0.00     0.033 H 
ATOM      5  H9  <0> d           0.297  -0.274   1.817  0.00  0.00     0.033 H 
BRANCH   3   6
ATOM      6  C2  <0> d           0.893  -2.043   0.741  0.00  0.00    -0.068 C 
ATOM      7  H6  <0> d          -0.103  -2.485   0.766  0.00  0.00     0.032 H 
ATOM      8  H7  <0> d           1.377  -2.291  -0.203  0.00  0.00     0.032 H 
BRANCH   6   9
ATOM      9  C1  <0> d           1.725  -2.594   1.901  0.00  0.00    -0.077 C 
ATOM     10  H3  <0> d           2.722  -2.152   1.875  0.00  0.00     0.027 H 
ATOM     11  H4  <0> d           1.242  -2.345   2.845  0.00  0.00     0.027 H 
ATOM     12  H5  <0> d           1.806  -3.677   1.808  0.00  0.00     0.027 H 
ENDBRANCH   6   9
ENDBRANCH   3   6
ENDBRANCH   1   3
BRANCH   1  13
ATOM     13  C5  <0> d          -1.485  -0.494  -0.180  0.00  0.00    -0.071 C 
ATOM     14  H10 <0> d          -1.899  -0.222   0.790  0.00  0.00     0.028 H 
ATOM     15  H11 <0> d          -2.092  -0.054  -0.971  0.00  0.00     0.028 H 
ATOM     16  H12 <0> d          -1.485  -1.579  -0.284  0.00  0.00     0.028 H 
ENDBRANCH   1  13
BRANCH   1  17
ATOM     17  C6  <0> d          -0.060   1.558  -0.227  0.00  0.00     0.041 C 
ATOM     18  H2  <0> d          -0.408   1.881   0.754  0.00  0.00     0.084 H 
BRANCH  17  19
ATOM     19  C7  <0> d           1.356   2.086  -0.466  0.00  0.00    -0.036 C 
ATOM     20  H13 <0> d           2.025   1.688   0.297  0.00  0.00     0.042 H 
BRANCH  19  21
ATOM     21  C8  <0> d           1.839   1.643  -1.849  0.00  0.00    -0.071 C 
ATOM     22  H14 <0> d           1.950   0.559  -1.865  0.00  0.00     0.028 H 
ATOM     23  H15 <0> d           1.112   1.946  -2.602  0.00  0.00     0.028 H 
ATOM     24  H16 <0> d           2.800   2.109  -2.064  0.00  0.00     0.028 H 
ENDBRANCH  19  21
BRANCH  19  25
ATOM     25  C9  <0> d           1.350   3.614  -0.393  0.00  0.00    -0.071 C 
ATOM     26  H17 <0> d           1.006   3.929   0.592  0.00  0.00     0.028 H 
ATOM     27  H18 <0> d           2.358   3.990  -0.563  0.00  0.00     0.028 H 
ATOM     28  H19 <0> d           0.680   4.011  -1.156  0.00  0.00     0.028 H 
ENDBRANCH  19  25
ENDBRANCH  17  19
BRANCH  17  29
ATOM     29  O1  <0> d          -0.935   2.069  -1.235  0.00  0.00    -0.395 OA
ATOM     30  H20 <0> d          -0.686   1.820  -2.135  0.00  0.00     0.210 HD
ENDBRANCH  17  29
ENDBRANCH   1  17
TORSDOF 9
