REMARK  4 active torsions:
REMARK  status: ('A' for Active; 'I' for Inactive)
REMARK    1  A    between atoms: C1_1  and  C2_2 
REMARK    2  A    between atoms: C3_3  and  C6_8 
REMARK    3  A    between atoms: C4_5  and  C5_7 
REMARK    4  A    between atoms: C6_8  and  C7_10 
ROOT
ATOM      1  C2  <0> d          -1.481   3.548   2.551  0.00  0.00     0.070 A 
ATOM      2  C3  <0> d          -0.864   2.959   1.480  0.00  0.00     0.147 A 
ATOM      3  O1  <0> d          -0.426   3.963   0.685  0.00  0.00    -0.290 OA
ATOM      4  C4  <0> d          -0.766   5.118   1.264  0.00  0.00     0.142 A 
ATOM      5  N1  <0> d          -1.395   4.870   2.383  0.00  0.00    -0.231 NA
ENDROOT
BRANCH   2   6
ATOM      6  C6  <0> d          -0.718   1.572   1.248  0.00  0.00     0.181 C 
ATOM      7  O2  <0> d          -1.161   0.772   2.047  0.00  0.00    -0.291 OA
BRANCH   6   8
ATOM      8  C7  <0> d          -0.013   1.086   0.008  0.00  0.00    -0.015 C 
ATOM      9  H7  <0> d           0.001   0.086   0.003  0.00  0.00     0.038 H 
ATOM     10  H8  <0> d           1.010   1.463   0.000  0.00  0.00     0.038 H 
ATOM     11  H9  <0> d          -0.540   1.447  -0.875  0.00  0.00     0.038 H 
ENDBRANCH   6   8
ENDBRANCH   2   6
BRANCH   1  12
ATOM     12  C1  <0> d          -2.134   2.836   3.707  0.00  0.00    -0.033 C 
ATOM     13  H1  <0> d          -1.400   2.673   4.495  0.00  0.00     0.035 H 
ATOM     14  H2  <0> d          -2.953   3.444   4.093  0.00  0.00     0.035 H 
ATOM     15  H3  <0> d          -2.524   1.876   3.369  0.00  0.00     0.035 H 
ENDBRANCH   1  12
BRANCH   4  16
ATOM     16  C5  <0> d          -0.470   6.490   0.716  0.00  0.00    -0.015 C 
ATOM     17  H4  <0> d          -1.293   6.812   0.078  0.00  0.00     0.038 H 
ATOM     18  H5  <0> d          -0.353   7.194   1.540  0.00  0.00     0.038 H 
ATOM     19  H6  <0> d           0.450   6.458   0.133  0.00  0.00     0.038 H 
ENDBRANCH   4  16
TORSDOF 4
