REMARK  2 active torsions:
REMARK  status: ('A' for Active; 'I' for Inactive)
REMARK    1  A    between atoms: C1_1  and  N1_2 
REMARK    2  A    between atoms: C2_3  and  C5_7 
ROOT
ATOM      1  N1  <0> d          -0.067  -0.007   0.008  0.00  0.00    -0.272 N 
ATOM      2  C2  <0> d          -0.088  -0.803  -1.099  0.00  0.00     0.082 A 
ATOM      3  C3  <0> d           0.040  -2.096  -0.672  0.00  0.00    -0.035 A 
ATOM      4  C4  <0> d           0.140  -2.079   0.719  0.00  0.00     0.024 A 
ATOM      5  N2  <0> d           0.082  -0.837   1.127  0.00  0.00    -0.185 NA
ATOM      6  H4  <0> d           0.060  -2.974  -1.301  0.00  0.00     0.089 H 
ATOM      7  H5  <0> d           0.252  -2.946   1.353  0.00  0.00     0.117 H 
ENDROOT
BRANCH   2   8
ATOM      8  C5  <0> d          -0.225  -0.353  -2.501  0.00  0.00     0.084 A 
ATOM      9  N3  <0> d          -0.174   0.944  -2.784  0.00  0.00    -0.259 NA
ATOM     10  C9  <0> d          -0.287   1.385  -4.020  0.00  0.00     0.003 A 
ATOM     11  C8  <0> d          -0.473   0.509  -5.073  0.00  0.00    -0.066 A 
ATOM     12  H9  <0> d          -0.237   2.447  -4.213  0.00  0.00     0.114 H 
ATOM     13  C7  <0> d          -0.537  -0.855  -4.821  0.00  0.00    -0.079 A 
ATOM     14  H8  <0> d          -0.569   0.882  -6.082  0.00  0.00     0.085 H 
ATOM     15  C6  <0> d          -0.411  -1.292  -3.515  0.00  0.00    -0.053 A 
ATOM     16  H7  <0> d          -0.682  -1.559  -5.628  0.00  0.00     0.083 H 
ATOM     17  H6  <0> d          -0.456  -2.346  -3.284  0.00  0.00     0.087 H 
ENDBRANCH   2   8
BRANCH   1  18
ATOM     18  C1  <0> d          -0.175   1.454   0.023  0.00  0.00     0.003 C 
ATOM     19  H1  <0> d           0.820   1.892  -0.056  0.00  0.00     0.059 H 
ATOM     20  H2  <0> d          -0.785   1.782  -0.819  0.00  0.00     0.059 H 
ATOM     21  H3  <0> d          -0.640   1.774   0.955  0.00  0.00     0.059 H 
ENDBRANCH   1  18
TORSDOF 2
