REMARK  2 active torsions:
REMARK  status: ('A' for Active; 'I' for Inactive)
REMARK    1  A    between atoms: C1_1  and  C2_2 
REMARK    2  A    between atoms: C5_5  and  C8_8 
ROOT
ATOM      1  C2  <0> d           1.171   2.086   0.002  0.00  0.00    -0.062 A 
ATOM      2  C3  <0> d          -0.017   1.378   0.010  0.00  0.00    -0.077 A 
ATOM      3  C4  <0> d           0.002  -0.004   0.002  0.00  0.00    -0.077 A 
ATOM      4  C5  <0> d           1.208  -0.679  -0.014  0.00  0.00    -0.062 A 
ATOM      5  C6  <0> d           2.396   0.029  -0.021  0.00  0.00    -0.077 A 
ATOM      6  C7  <0> d           2.377   1.411  -0.014  0.00  0.00    -0.077 A 
ATOM      7  H4  <0> d          -0.959   1.905   0.017  0.00  0.00     0.084 H 
ATOM      8  H5  <0> d          -0.926  -0.557   0.008  0.00  0.00     0.084 H 
ATOM      9  H6  <0> d           3.339  -0.499  -0.033  0.00  0.00     0.084 H 
ATOM     10  H7  <0> d           3.305   1.963  -0.019  0.00  0.00     0.084 H 
ENDROOT
BRANCH   1  11
ATOM     11  C1  <0> d           1.151   3.592   0.010  0.00  0.00    -0.051 C 
ATOM     12  H1  <0> d           1.155   3.950   1.039  0.00  0.00     0.033 H 
ATOM     13  H2  <0> d           2.031   3.970  -0.510  0.00  0.00     0.033 H 
ATOM     14  H3  <0> d           0.251   3.946  -0.494  0.00  0.00     0.033 H 
ENDBRANCH   1  11
BRANCH   4  15
ATOM     15  C8  <0> d           1.229  -2.186  -0.022  0.00  0.00    -0.051 C 
ATOM     16  H8  <0> d           1.224  -2.543  -1.052  0.00  0.00     0.033 H 
ATOM     17  H9  <0> d           2.129  -2.540   0.481  0.00  0.00     0.033 H 
ATOM     18  H10 <0> d           0.349  -2.564   0.499  0.00  0.00     0.033 H 
ENDBRANCH   4  15
TORSDOF 2
