REMARK  1 active torsions:
REMARK  status: ('A' for Active; 'I' for Inactive)
REMARK    1  A    between atoms: C3_4  and  N2_6 
ROOT
ATOM      1  C1  <0> d           3.241   4.769  -0.005  0.00  0.00     0.011 A 
ATOM      2  C2  <0> d           2.204   5.644   0.009  0.00  0.00    -0.025 A 
ATOM      3  S1  <0> d           0.819   4.515   0.009  0.00  0.00    -0.060 SA
ATOM      4  C3  <0> d           1.732   3.038   0.001  0.00  0.00     0.196 A 
ATOM      5  N1  <0> d           2.974   3.479  -0.009  0.00  0.00    -0.235 NA
ATOM      6  H1  <0> d           4.262   5.121  -0.013  0.00  0.00     0.115 H 
ATOM      7  H2  <0> d           2.214   6.724   0.013  0.00  0.00     0.097 H 
ENDROOT
BRANCH   4   8
ATOM      8  N2  <0> d           1.270   1.722  -0.001  0.00  0.00    -0.181 N 
ATOM      9  N5  <0> d           2.040   0.546  -0.015  0.00  0.00    -0.038 NA
ATOM     10  N4  <0> d           1.210  -0.441  -0.012  0.00  0.00    -0.023 NA
ATOM     11  N3  <0> d           0.002  -0.004   0.002  0.00  0.00    -0.122 NA
ATOM     12  C4  <0> d          -0.016   1.303   0.009  0.00  0.00     0.115 A 
ATOM     13  H3  <0> d          -0.894   1.932   0.017  0.00  0.00     0.149 H 
ENDBRANCH   4   8
TORSDOF 1
