REMARK  4 active torsions:
REMARK  status: ('A' for Active; 'I' for Inactive)
REMARK    1  A    between atoms: C1_1  and  C2_2 
REMARK    2  A    between atoms: C2_2  and  C3_3 
REMARK    3  A    between atoms: C2_2  and  C4_4 
REMARK       I    between atoms: C4_4  and  N1_6 
REMARK    4  A    between atoms: N1_6  and  C5_7 
ROOT
ATOM      1  C2  <0> d          -0.018   1.503   0.010  0.00  0.00     0.017 C 
ATOM      2  H4  <0> d           1.004   1.880   0.003  0.00  0.00     0.053 H 
ENDROOT
BRANCH   1   3
ATOM      3  C1  <0> d          -0.758   2.010  -1.229  0.00  0.00    -0.065 C 
ATOM      4  H1  <0> d          -1.781   1.632  -1.222  0.00  0.00     0.028 H 
ATOM      5  H2  <0> d          -0.773   3.099  -1.223  0.00  0.00     0.028 H 
ATOM      6  H3  <0> d          -0.248   1.658  -2.126  0.00  0.00     0.028 H 
ENDBRANCH   1   3
BRANCH   1   7
ATOM      7  C3  <0> d          -0.735   1.996   1.269  0.00  0.00    -0.065 C 
ATOM      8  H5  <0> d          -0.207   1.635   2.152  0.00  0.00     0.028 H 
ATOM      9  H6  <0> d          -0.749   3.086   1.275  0.00  0.00     0.028 H 
ATOM     10  H7  <0> d          -1.757   1.619   1.277  0.00  0.00     0.028 H 
ENDBRANCH   1   7
BRANCH   1  11
ATOM     11  C4  <0> d           0.002  -0.004   0.002  0.00  0.00     0.220 C 
ATOM     12  O1  <0> d          -0.523  -0.613  -0.906  0.00  0.00    -0.273 OA
ATOM     13  N1  <0> d           0.604  -0.675   1.004  0.00  0.00    -0.365 N 
ATOM     14  H8  <0> d           1.025  -0.189   1.730  0.00  0.00     0.161 HD
BRANCH  13  15
ATOM     15  C5  <0> d           0.624  -2.140   0.996  0.00  0.00    -0.018 C 
ATOM     16  H9  <0> d           1.151  -2.501   1.879  0.00  0.00     0.056 H 
ATOM     17  H10 <0> d          -0.398  -2.518   1.003  0.00  0.00     0.056 H 
ATOM     18  H11 <0> d           1.134  -2.492   0.099  0.00  0.00     0.056 H 
ENDBRANCH  13  15
ENDBRANCH   1  11
TORSDOF 4
