REMARK  4 active torsions:
REMARK  status: ('A' for Active; 'I' for Inactive)
REMARK    1  A    between atoms: C1_1  and  C2_2 
REMARK    2  A    between atoms: C2_2  and  C3_3 
REMARK    3  A    between atoms: C3_3  and  C4_4 
REMARK    4  A    between atoms: C3_3  and  C5_5 
ROOT
ATOM      1  C5  <0> d          -1.433  -0.534   0.013  0.00  0.00     0.033 C 
ATOM      2  C6  <0> d          -2.122  -0.059   1.224  0.00  0.00     0.060 C 
ATOM      3  N1  <0> d          -2.654   0.307   2.159  0.00  0.00    -0.197 NA
ATOM      4  H9  <0> d          -1.960  -0.173  -0.870  0.00  0.00     0.057 H 
ATOM      5  H10 <0> d          -1.419  -1.623   0.007  0.00  0.00     0.057 H 
ENDROOT
BRANCH   1   6
ATOM      6  C3  <0> d           0.002  -0.004   0.002  0.00  0.00     0.057 C 
ATOM      7  C7  <0> d           0.714  -0.492   1.195  0.00  0.00     0.070 C 
ATOM      8  N2  <0> d           1.263  -0.868   2.115  0.00  0.00    -0.196 NA
BRANCH   6   9
ATOM      9  C2  <0> d           0.718  -0.497  -1.257  0.00  0.00    -0.049 C 
ATOM     10  H4  <0> d           0.733  -1.587  -1.263  0.00  0.00     0.035 H 
ATOM     11  H5  <0> d           0.191  -0.136  -2.140  0.00  0.00     0.035 H 
BRANCH   9  12
ATOM     12  C1  <0> d           2.154   0.032  -1.268  0.00  0.00    -0.075 C 
ATOM     13  H1  <0> d           2.139   1.122  -1.262  0.00  0.00     0.027 H 
ATOM     14  H2  <0> d           2.681  -0.329  -0.385  0.00  0.00     0.027 H 
ATOM     15  H3  <0> d           2.664  -0.319  -2.164  0.00  0.00     0.027 H 
ENDBRANCH   9  12
ENDBRANCH   6   9
BRANCH   6  16
ATOM     16  C4  <0> d          -0.019   1.526   0.010  0.00  0.00    -0.056 C 
ATOM     17  H6  <0> d           1.004   1.903   0.003  0.00  0.00     0.029 H 
ATOM     18  H7  <0> d          -0.546   1.887  -0.873  0.00  0.00     0.029 H 
ATOM     19  H8  <0> d          -0.529   1.877   0.907  0.00  0.00     0.029 H 
ENDBRANCH   6  16
ENDBRANCH   1   6
TORSDOF 4
