REMARK  4 active torsions:
REMARK  status: ('A' for Active; 'I' for Inactive)
REMARK    1  A    between atoms: C2_2  and  C3_3 
REMARK    2  A    between atoms: C3_3  and  O1_4 
REMARK    3  A    between atoms: O1_4  and  C4_5 
REMARK    4  A    between atoms: C4_5  and  C5_6 
ROOT
ATOM      1  C3  <0> d          -1.293  -0.775   0.010  0.00  0.00     0.035 C 
ATOM      2  H4  <0> d          -1.459  -1.195   1.002  0.00  0.00     0.080 H 
ATOM      3  H5  <0> d          -2.115  -0.107  -0.244  0.00  0.00     0.080 H 
ENDROOT
BRANCH   1   4
ATOM      4  C2  <0> d           0.002  -0.004   0.002  0.00  0.00    -0.090 C 
ATOM      5  C1  <0> d          -0.016   1.306   0.009  0.00  0.00    -0.123 C 
ATOM      6  H1  <0> d           0.912   1.859   0.003  0.00  0.00     0.066 H 
ATOM      7  H2  <0> d          -0.958   1.833   0.017  0.00  0.00     0.066 H 
ATOM      8  H3  <0> d           0.945  -0.531  -0.010  0.00  0.00     0.078 H 
ENDBRANCH   1   4
BRANCH   1   9
ATOM      9  O1  <0> d          -1.224  -1.832  -0.949  0.00  0.00    -0.377 OA
BRANCH   9  10
ATOM     10  C4  <0> d          -2.407  -2.630  -1.022  0.00  0.00     0.099 C 
ATOM     11  H6  <0> d          -2.597  -3.088  -0.051  0.00  0.00     0.091 H 
ATOM     12  H7  <0> d          -3.253  -2.000  -1.298  0.00  0.00     0.091 H 
BRANCH  10  13
ATOM     13  C5  <0> d          -2.224  -3.707  -2.059  0.00  0.00     0.197 C 
ATOM     14  O2  <0> d          -1.177  -3.786  -2.678  0.00  0.00    -0.646 OA
ATOM     15  O3  <0> d          -3.123  -4.501  -2.278  0.00  0.00    -0.646 OA
ENDBRANCH  10  13
ENDBRANCH   9  10
ENDBRANCH   1   9
TORSDOF 4
