REMARK  1 active torsions:
REMARK  status: ('A' for Active; 'I' for Inactive)
REMARK    1  A    between atoms: N1_4  and  C6_7 
ROOT
ATOM      1  C1  <0> d           3.094   5.418  -1.013  0.00  0.00    -0.063 C 
ATOM      2  C2  <0> d           3.655   4.579   0.139  0.00  0.00    -0.054 C 
ATOM      3  C3  <0> d           3.179   3.132  -0.011  0.00  0.00    -0.014 C 
ATOM      4  N1  <0> d           1.711   3.095   0.002  0.00  0.00    -0.249 NA
ATOM      5  C4  <0> d           1.150   3.855  -1.122  0.00  0.00    -0.014 C 
ATOM      6  C5  <0> d           1.566   5.323  -1.005  0.00  0.00    -0.054 C 
ATOM      7  H1  <0> d           3.395   6.458  -0.886  0.00  0.00     0.033 H 
ATOM      8  H2  <0> d           3.478   5.039  -1.960  0.00  0.00     0.033 H 
ATOM      9  H3  <0> d           3.303   4.982   1.088  0.00  0.00     0.034 H 
ATOM     10  H4  <0> d           4.745   4.608   0.113  0.00  0.00     0.034 H 
ATOM     11  H5  <0> d           3.566   2.535   0.815  0.00  0.00     0.056 H 
ATOM     12  H6  <0> d           3.544   2.726  -0.955  0.00  0.00     0.056 H 
ATOM     13  H7  <0> d           1.524   3.445  -2.060  0.00  0.00     0.056 H 
ATOM     14  H8  <0> d           0.063   3.783  -1.103  0.00  0.00     0.056 H 
ATOM     15  H9  <0> d           1.180   5.737  -0.074  0.00  0.00     0.034 H 
ATOM     16  H10 <0> d           1.162   5.884  -1.848  0.00  0.00     0.034 H 
ENDROOT
BRANCH   4  17
ATOM     17  C6  <0> d           1.244   1.779  -0.000  0.00  0.00     0.247 A 
ATOM     18  N4  <0> d           1.994   0.676  -0.013  0.00  0.00    -0.094 NA
ATOM     19  N3  <0> d           1.240  -0.365  -0.012  0.00  0.00    -0.020 NA
ATOM     20  N5  <0> d           0.014   0.005   0.002  0.00  0.00    -0.020 NA
ATOM     21  N2  <0> d          -0.017   1.400   0.010  0.00  0.00    -0.094 NA
ENDBRANCH   4  17
TORSDOF 1
