REMARK  3 active torsions:
REMARK  status: ('A' for Active; 'I' for Inactive)
REMARK    1  A    between atoms: C1_1  and  C2_2 
REMARK    2  A    between atoms: C2_2  and  O2_4 
REMARK    3  A    between atoms: O2_4  and  C3_5 
ROOT
ATOM      1  C3  <0> d          -1.057  -2.117   0.001  0.00  0.00     0.064 C 
ATOM      2  H1  <0> d          -0.149  -2.416  -0.524  0.00  0.00     0.090 H 
ATOM      3  C4  <0> d          -2.275  -2.701  -0.719  0.00  0.00    -0.037 C 
ATOM      4  C5  <0> d          -2.290  -4.218  -0.492  0.00  0.00    -0.060 C 
ATOM      5  C6  <0> d          -2.566  -4.484   0.989  0.00  0.00    -0.050 C 
ATOM      6  C7  <0> d          -1.653  -3.652   1.842  0.00  0.00    -0.104 C 
ATOM      7  C8  <0> d          -1.004  -2.620   1.413  0.00  0.00    -0.079 C 
ATOM      8  H5  <0> d          -3.186  -2.261  -0.314  0.00  0.00     0.037 H 
ATOM      9  H6  <0> d          -2.205  -2.491  -1.786  0.00  0.00     0.037 H 
ATOM     10  H7  <0> d          -3.075  -4.671  -1.098  0.00  0.00     0.033 H 
ATOM     11  H8  <0> d          -1.323  -4.639  -0.766  0.00  0.00     0.033 H 
ATOM     12  H9  <0> d          -3.602  -4.230   1.215  0.00  0.00     0.038 H 
ATOM     13  H10 <0> d          -2.400  -5.539   1.204  0.00  0.00     0.038 H 
ATOM     14  H11 <0> d          -1.534  -3.932   2.878  0.00  0.00     0.076 H 
ATOM     15  H12 <0> d          -0.381  -2.089   2.118  0.00  0.00     0.080 H 
ENDROOT
BRANCH   1  16
ATOM     16  O2  <0> d          -1.151  -0.691   0.009  0.00  0.00    -0.312 OA
BRANCH  16  17
ATOM     17  C2  <0> d           0.002  -0.004   0.002  0.00  0.00     0.255 C 
ATOM     18  O1  <0> d           1.056  -0.594  -0.011  0.00  0.00    -0.266 OA
BRANCH  17  19
ATOM     19  C1  <0> d          -0.018   1.503   0.010  0.00  0.00     0.004 C 
ATOM     20  H2  <0> d           1.004   1.880   0.003  0.00  0.00     0.041 H 
ATOM     21  H3  <0> d          -0.545   1.864  -0.873  0.00  0.00     0.041 H 
ATOM     22  H4  <0> d          -0.529   1.854   0.907  0.00  0.00     0.041 H 
ENDBRANCH  17  19
ENDBRANCH  16  17
ENDBRANCH   1  16
TORSDOF 3
