REMARK  4 active torsions:
REMARK  status: ('A' for Active; 'I' for Inactive)
REMARK    1  A    between atoms: C3_3  and  C4_4 
REMARK       I    between atoms: C4_4  and  N1_6 
REMARK    2  A    between atoms: N1_6  and  C5_7 
REMARK    3  A    between atoms: C5_7  and  C6_8 
REMARK    4  A    between atoms: C6_8  and  C7_9 
ROOT
ATOM      1  C4  <0> d          -0.014   1.209   0.009  0.00  0.00     0.221 C 
ATOM      2  O1  <0> d           0.002  -0.004   0.002  0.00  0.00    -0.273 OA
ATOM      3  N1  <0> d           1.143   1.898   0.001  0.00  0.00    -0.360 N 
ATOM      4  H6  <0> d           1.130   2.868   0.007  0.00  0.00     0.162 HD
ENDROOT
BRANCH   3   5
ATOM      5  C5  <0> d           2.422   1.183  -0.015  0.00  0.00     0.004 C 
ATOM      6  H7  <0> d           2.497   0.553   0.871  0.00  0.00     0.064 H 
ATOM      7  H8  <0> d           2.480   0.562  -0.909  0.00  0.00     0.064 H 
BRANCH   5   8
ATOM      8  C6  <0> d           3.571   2.193  -0.020  0.00  0.00     0.030 C 
ATOM      9  H9  <0> d           3.497   2.824  -0.906  0.00  0.00     0.051 H 
ATOM     10  H10 <0> d           3.514   2.814   0.874  0.00  0.00     0.051 H 
BRANCH   8  11
ATOM     11  C7  <0> d           4.886   1.458  -0.037  0.00  0.00     0.174 C 
ATOM     12  O2  <0> d           4.903   0.249  -0.043  0.00  0.00    -0.648 OA
ATOM     13  O3  <0> d           6.040   2.144  -0.044  0.00  0.00    -0.648 OA
ENDBRANCH   8  11
ENDBRANCH   5   8
ENDBRANCH   3   5
BRANCH   1  14
ATOM     14  C3  <0> d          -1.330   1.944   0.019  0.00  0.00     0.024 A 
ATOM     15  C1  <0> d          -2.180   1.853   1.287  0.00  0.00    -0.053 A 
ATOM     16  C2  <0> d          -2.609   1.105   0.022  0.00  0.00    -0.053 A 
ATOM     17  H1  <0> d          -1.789   1.261   2.114  0.00  0.00     0.034 H 
ATOM     18  H2  <0> d          -2.757   2.733   1.571  0.00  0.00     0.034 H 
ATOM     19  H3  <0> d          -3.467   1.493  -0.525  0.00  0.00     0.034 H 
ATOM     20  H4  <0> d          -2.499   0.020   0.017  0.00  0.00     0.034 H 
ATOM     21  H5  <0> d          -1.346   2.885  -0.532  0.00  0.00     0.054 H 
ENDBRANCH   1  14
TORSDOF 4
