REMARK  2 active torsions:
REMARK  status: ('A' for Active; 'I' for Inactive)
REMARK    1  A    between atoms: C1_1  and  C2_2 
REMARK    2  A    between atoms: C7_7  and  O1_12 
ROOT
ATOM      1  C2  <0> d          -0.415  -2.223  -0.005  0.00  0.00     0.006 A 
ATOM      2  C3  <0> d          -1.039  -1.035   0.007  0.00  0.00    -0.050 A 
ATOM      3  C4  <0> d           0.002  -0.004   0.002  0.00  0.00    -0.007 A 
ATOM      4  C5  <0> d          -0.017   1.392   0.010  0.00  0.00    -0.068 A 
ATOM      5  C6  <0> d           1.158   2.088   0.002  0.00  0.00    -0.050 A 
ATOM      6  C7  <0> d           2.377   1.415  -0.014  0.00  0.00     0.067 A 
ATOM      7  C8  <0> d           2.417   0.033  -0.021  0.00  0.00    -0.025 A 
ATOM      8  C9  <0> d           1.229  -0.691  -0.013  0.00  0.00     0.045 A 
ATOM      9  N1  <0> d           0.942  -2.038  -0.017  0.00  0.00    -0.359 N 
ATOM     10  H1  <0> d           1.601  -2.748  -0.027  0.00  0.00     0.166 HD
ATOM     11  H5  <0> d          -2.107  -0.870   0.019  0.00  0.00     0.087 H 
ATOM     12  H6  <0> d          -0.959   1.921   0.017  0.00  0.00     0.085 H 
ATOM     13  H7  <0> d           1.142   3.168   0.008  0.00  0.00     0.087 H 
ATOM     14  H8  <0> d           3.366  -0.482  -0.033  0.00  0.00     0.091 H 
ENDROOT
BRANCH   1  15
ATOM     15  C1  <0> d          -1.105  -3.563  -0.004  0.00  0.00    -0.037 C 
ATOM     16  H2  <0> d          -1.262  -3.890   1.024  0.00  0.00     0.035 H 
ATOM     17  H3  <0> d          -2.068  -3.476  -0.508  0.00  0.00     0.035 H 
ATOM     18  H4  <0> d          -0.486  -4.291  -0.527  0.00  0.00     0.035 H 
ENDBRANCH   1  15
BRANCH   6  19
ATOM     19  O1  <0> d           3.538   2.122  -0.021  0.00  0.00    -0.361 OA
ATOM     20  H9  <0> d           3.865   2.332  -0.907  0.00  0.00     0.217 HD
ENDBRANCH   6  19
TORSDOF 2
