REMARK  2 active torsions:
REMARK  status: ('A' for Active; 'I' for Inactive)
REMARK    1  A    between atoms: C1_1  and  C2_2 
REMARK    2  A    between atoms: C4_7  and  C6_12 
ROOT
ATOM      1  C2  <0> d          -0.729   1.579   1.267  0.00  0.00     0.086 C 
ATOM      2  H1  <0> d          -1.750   1.199   1.268  0.00  0.00     0.086 H 
ATOM      3  C3  <0> d          -0.010   1.061   2.476  0.00  0.00     0.240 C 
ATOM      4  O1  <0> d           0.417  -0.074   2.456  0.00  0.00    -0.271 OA
ATOM      5  N1  <0> d           0.180   1.798   3.574  0.00  0.00    -0.346 N 
ATOM      6  C4  <0> d          -0.294   3.170   3.697  0.00  0.00     0.086 C 
ATOM      7  H2  <0> d           0.464   3.765   4.207  0.00  0.00     0.086 H 
ATOM      8  C5  <0> d          -0.569   3.773   2.353  0.00  0.00     0.240 C 
ATOM      9  O2  <0> d          -0.616   4.981   2.257  0.00  0.00    -0.271 OA
ATOM     10  N2  <0> d          -0.762   3.035   1.257  0.00  0.00    -0.346 N 
ATOM     11  H6  <0> d           0.655   1.402   4.322  0.00  0.00     0.163 HD
ATOM     12  H7  <0> d          -0.933   3.490   0.417  0.00  0.00     0.163 HD
ENDROOT
BRANCH   1  13
ATOM     13  C1  <0> d          -0.013   1.086   0.008  0.00  0.00    -0.049 C 
ATOM     14  H3  <0> d           0.002  -0.004   0.002  0.00  0.00     0.030 H 
ATOM     15  H4  <0> d           1.010   1.463   0.000  0.00  0.00     0.030 H 
ATOM     16  H5  <0> d          -0.540   1.447  -0.875  0.00  0.00     0.030 H 
ENDBRANCH   1  13
BRANCH   6  17
ATOM     17  C6  <0> d          -1.581   3.182   4.525  0.00  0.00    -0.049 C 
ATOM     18  H8  <0> d          -1.380   2.773   5.515  0.00  0.00     0.030 H 
ATOM     19  H9  <0> d          -1.941   4.206   4.620  0.00  0.00     0.030 H 
ATOM     20  H10 <0> d          -2.338   2.575   4.028  0.00  0.00     0.030 H 
ENDBRANCH   6  17
TORSDOF 2
