REMARK  3 active torsions:
REMARK  status: ('A' for Active; 'I' for Inactive)
REMARK    1  A    between atoms: C1_1  and  N1_2 
REMARK    2  A    between atoms: C3_4  and  C6_9 
REMARK    3  A    between atoms: C6_9  and  O2_10 
ROOT
ATOM      1  N1  <0> d          -0.018   1.461   0.010  0.00  0.00    -0.356 N 
ATOM      2  C2  <0> d          -1.241   2.272   0.020  0.00  0.00     0.003 C 
ATOM      3  C3  <0> d          -0.801   3.689  -0.406  0.00  0.00    -0.010 C 
ATOM      4  H1  <0> d          -0.909   3.819  -1.483  0.00  0.00     0.046 H 
ATOM      5  C4  <0> d           0.690   3.695   0.005  0.00  0.00     0.016 C 
ATOM      6  C5  <0> d           1.081   2.234   0.004  0.00  0.00     0.219 C 
ATOM      7  O1  <0> d           2.222   1.821  -0.002  0.00  0.00    -0.273 OA
ATOM      8  H5  <0> d          -1.965   1.872  -0.690  0.00  0.00     0.065 H 
ATOM      9  H6  <0> d          -1.668   2.299   1.022  0.00  0.00     0.065 H 
ATOM     10  H7  <0> d           0.808   4.121   1.002  0.00  0.00     0.048 H 
ATOM     11  H8  <0> d           1.285   4.251  -0.720  0.00  0.00     0.048 H 
ENDROOT
BRANCH   3  12
ATOM     12  C6  <0> d          -1.584   4.761   0.354  0.00  0.00     0.022 C 
ATOM     13  H9  <0> d          -2.646   4.660   0.133  0.00  0.00     0.074 H 
ATOM     14  H10 <0> d          -1.422   4.638   1.425  0.00  0.00     0.074 H 
BRANCH  12  15
ATOM     15  O2  <0> d          -1.133   6.056  -0.050  0.00  0.00    -0.400 OA
ATOM     16  H11 <0> d          -1.587   6.786   0.393  0.00  0.00     0.209 HD
ENDBRANCH  12  15
ENDBRANCH   3  12
BRANCH   1  17
ATOM     17  C1  <0> d           0.002  -0.004   0.002  0.00  0.00    -0.016 C 
ATOM     18  H2  <0> d           1.034  -0.353  -0.009  0.00  0.00     0.056 H 
ATOM     19  H3  <0> d          -0.499  -0.379   0.895  0.00  0.00     0.056 H 
ATOM     20  H4  <0> d          -0.515  -0.370  -0.885  0.00  0.00     0.056 H 
ENDBRANCH   1  17
TORSDOF 3
