REMARK  2 active torsions:
REMARK  status: ('A' for Active; 'I' for Inactive)
REMARK    1  A    between atoms: C1_1  and  C2_2 
REMARK    2  A    between atoms: N1_10  and  C7_11 
ROOT
ATOM      1  C2  <0> d          -0.013   1.086   0.008  0.00  0.00     0.017 C 
ATOM      2  H1  <0> d          -0.050  -0.013   0.049  0.00  0.00     0.072 H 
ATOM      3  C3  <0> d          -0.736   1.585  -1.244  0.00  0.00     0.009 C 
ATOM      4  C4  <0> d          -2.219   1.339  -1.059  0.00  0.00     0.137 C 
ATOM      5  O1  <0> d          -2.845   0.641  -1.821  0.00  0.00    -0.297 OA
ATOM      6  C5  <0> d          -2.880   2.008   0.128  0.00  0.00     0.064 C 
ATOM      7  C6  <0> d          -1.954   1.911   1.310  0.00  0.00     0.226 C 
ATOM      8  O2  <0> d          -2.396   2.178   2.408  0.00  0.00    -0.273 OA
ATOM      9  N1  <0> d          -0.678   1.547   1.216  0.00  0.00    -0.351 N 
ATOM     10  H5  <0> d          -0.543   2.659  -1.375  0.00  0.00     0.047 H 
ATOM     11  H6  <0> d          -0.368   1.036  -2.124  0.00  0.00     0.047 H 
ATOM     12  H7  <0> d          -3.075   3.064  -0.109  0.00  0.00     0.058 H 
ATOM     13  H8  <0> d          -3.830   1.501   0.353  0.00  0.00     0.058 H 
ENDROOT
BRANCH   1  14
ATOM     14  C1  <0> d           1.426   1.607  -0.003  0.00  0.00    -0.057 C 
ATOM     15  H2  <0> d           1.934   1.261  -0.915  0.00  0.00     0.030 H 
ATOM     16  H3  <0> d           1.960   1.228   0.881  0.00  0.00     0.030 H 
ATOM     17  H4  <0> d           1.417   2.707   0.018  0.00  0.00     0.030 H 
ENDBRANCH   1  14
BRANCH   9  18
ATOM     18  C7  <0> d           0.129   1.617   2.437  0.00  0.00    -0.016 C 
ATOM     19  H9  <0> d          -0.495   1.979   3.268  0.00  0.00     0.056 H 
ATOM     20  H10 <0> d           0.970   2.308   2.282  0.00  0.00     0.056 H 
ATOM     21  H11 <0> d           0.516   0.616   2.679  0.00  0.00     0.056 H 
ENDBRANCH   9  18
TORSDOF 2
