REMARK  3 active torsions:
REMARK  status: ('A' for Active; 'I' for Inactive)
REMARK    1  A    between atoms: C1_1  and  C2_2 
REMARK    2  A    between atoms: C2_2  and  C3_4 
REMARK    3  A    between atoms: C2_2  and  O1_12 
ROOT
ATOM      1  C3  <0> d           1.155   3.438   0.009  0.00  0.00    -0.024 A 
ATOM      2  C4  <0> d          -0.051   4.114   0.025  0.00  0.00    -0.037 A 
ATOM      3  C5  <0> d          -1.241   3.407   0.032  0.00  0.00     0.119 A 
ATOM      4  C6  <0> d          -1.224   2.023   0.019  0.00  0.00    -0.009 A 
ATOM      5  C7  <0> d          -0.016   1.347   0.009  0.00  0.00     0.119 A 
ATOM      6  C8  <0> d           1.173   2.056   0.002  0.00  0.00    -0.037 A 
ATOM      7  F1  <0> d           0.002  -0.004   0.002  0.00  0.00    -0.206 F 
ATOM      8  F2  <0> d          -2.419   4.068   0.047  0.00  0.00    -0.206 F 
ATOM      9  H5  <0> d          -0.064   5.194   0.031  0.00  0.00     0.089 H 
ATOM     10  H6  <0> d          -2.152   1.471   0.020  0.00  0.00     0.092 H 
ATOM     11  H7  <0> d           2.116   1.528  -0.010  0.00  0.00     0.089 H 
ENDROOT
BRANCH   1  12
ATOM     12  C2  <0> d           2.450   4.208   0.000  0.00  0.00     0.057 C 
ATOM     13  H1  <0> d           3.234   3.595  -0.445  0.00  0.00     0.089 H 
BRANCH  12  14
ATOM     14  C1  <0> d           2.838   4.569   1.435  0.00  0.00    -0.049 C 
ATOM     15  H2  <0> d           2.962   3.657   2.019  0.00  0.00     0.031 H 
ATOM     16  H3  <0> d           3.775   5.127   1.429  0.00  0.00     0.031 H 
ATOM     17  H4  <0> d           2.054   5.182   1.881  0.00  0.00     0.031 H 
ENDBRANCH  12  14
BRANCH  12  18
ATOM     18  O1  <0> d           2.288   5.404  -0.765  0.00  0.00    -0.391 OA
ATOM     19  H8  <0> d           1.605   5.998  -0.426  0.00  0.00     0.210 HD
ENDBRANCH  12  18
ENDBRANCH   1  12
TORSDOF 3
