REMARK  5 active torsions:
REMARK  status: ('A' for Active; 'I' for Inactive)
REMARK    1  A    between atoms: C1_1  and  C2_2 
REMARK    2  A    between atoms: C2_2  and  C3_3 
REMARK    3  A    between atoms: C2_2  and  O1_4 
REMARK    4  A    between atoms: O1_4  and  C4_5 
REMARK    5  A    between atoms: C4_5  and  C5_6 
ROOT
ATOM      1  O1  <0> d          -0.704   1.559  -1.150  0.00  0.00    -0.381 OA
ENDROOT
BRANCH   1   2
ATOM      2  C2  <0> d          -0.114   1.152  -2.386  0.00  0.00     0.032 C 
ATOM      3  H5  <0> d           0.962   1.037  -2.254  0.00  0.00     0.082 H 
BRANCH   2   4
ATOM      4  C1  <0> d          -0.720  -0.182  -2.826  0.00  0.00    -0.052 C 
ATOM      5  H2  <0> d          -1.796  -0.067  -2.957  0.00  0.00     0.030 H 
ATOM      6  H3  <0> d          -0.270  -0.492  -3.768  0.00  0.00     0.030 H 
ATOM      7  H4  <0> d          -0.526  -0.938  -2.064  0.00  0.00     0.030 H 
ENDBRANCH   2   4
BRANCH   2   8
ATOM      8  C3  <0> d          -0.386   2.213  -3.454  0.00  0.00    -0.052 C 
ATOM      9  H6  <0> d           0.046   3.163  -3.141  0.00  0.00     0.030 H 
ATOM     10  H7  <0> d           0.065   1.903  -4.397  0.00  0.00     0.030 H 
ATOM     11  H8  <0> d          -1.462   2.328  -3.586  0.00  0.00     0.030 H 
ENDBRANCH   2   8
ENDBRANCH   1   2
BRANCH   1  12
ATOM     12  C4  <0> d          -0.013   1.086   0.008  0.00  0.00     0.063 C 
ATOM     13  H9  <0> d           0.002  -0.004   0.002  0.00  0.00     0.084 H 
ATOM     14  H10 <0> d           1.010   1.463   0.000  0.00  0.00     0.084 H 
BRANCH  12  15
ATOM     15  C5  <0> d          -0.718   1.572   1.248  0.00  0.00     0.099 A 
ATOM     16  N3  <0> d          -0.380   1.334   2.495  0.00  0.00    -0.158 NA
ATOM     17  N2  <0> d          -1.223   1.920   3.270  0.00  0.00    -0.197 N 
ATOM     18  N1  <0> d          -2.120   2.536   2.584  0.00  0.00    -0.168 NA
ATOM     19  H1  <0> d          -1.186   1.900   4.269  0.00  0.00     0.212 HD
ATOM     20  C6  <0> d          -1.868   2.362   1.307  0.00  0.00     0.051 A 
ATOM     21  H11 <0> d          -2.434   2.751   0.473  0.00  0.00     0.120 H 
ENDBRANCH  12  15
ENDBRANCH   1  12
TORSDOF 5
