REMARK  4 active torsions:
REMARK  status: ('A' for Active; 'I' for Inactive)
REMARK    1  A    between atoms: C6_6  and  O1_7 
REMARK    2  A    between atoms: O1_7  and  C7_8 
REMARK    3  A    between atoms: C7_8  and  C8_9 
REMARK    4  A    between atoms: C8_9  and  O2_10 
ROOT
ATOM      1  C1  <0> d          -0.017   1.377   0.010  0.00  0.00    -0.048 A 
ATOM      2  C2  <0> d           0.002  -0.004   0.002  0.00  0.00    -0.043 A 
ATOM      3  C3  <0> d           1.210  -0.681  -0.013  0.00  0.00     0.116 A 
ATOM      4  C4  <0> d           2.401   0.026  -0.021  0.00  0.00    -0.043 A 
ATOM      5  C5  <0> d           2.385   1.407  -0.013  0.00  0.00    -0.048 A 
ATOM      6  C6  <0> d           1.175   2.087   0.002  0.00  0.00     0.069 A 
ATOM      7  F1  <0> d           1.227  -2.031  -0.020  0.00  0.00    -0.206 F 
ATOM      8  H1  <0> d          -0.959   1.905   0.017  0.00  0.00     0.087 H 
ATOM      9  H2  <0> d          -0.926  -0.556   0.008  0.00  0.00     0.088 H 
ATOM     10  H3  <0> d           3.342  -0.503  -0.033  0.00  0.00     0.088 H 
ATOM     11  H4  <0> d           3.314   1.958  -0.018  0.00  0.00     0.087 H 
ENDROOT
BRANCH   6  12
ATOM     12  O1  <0> d           1.158   3.446   0.009  0.00  0.00    -0.349 OA
BRANCH  12  13
ATOM     13  C7  <0> d           2.423   4.111   0.001  0.00  0.00     0.045 C 
ATOM     14  H5  <0> d           2.992   3.820   0.884  0.00  0.00     0.078 H 
ATOM     15  H6  <0> d           2.976   3.829  -0.896  0.00  0.00     0.078 H 
BRANCH  13  16
ATOM     16  C8  <0> d           2.204   5.625   0.010  0.00  0.00     0.037 C 
ATOM     17  H7  <0> d           3.164   6.131  -0.086  0.00  0.00     0.077 H 
ATOM     18  H8  <0> d           1.561   5.904  -0.824  0.00  0.00     0.077 H 
BRANCH  16  19
ATOM     19  O2  <0> d           1.584   6.008   1.239  0.00  0.00    -0.399 OA
ATOM     20  H9  <0> d           1.414   6.957   1.315  0.00  0.00     0.209 HD
ENDBRANCH  16  19
ENDBRANCH  13  16
ENDBRANCH  12  13
ENDBRANCH   6  12
TORSDOF 4
