REMARK  3 active torsions:
REMARK  status: ('A' for Active; 'I' for Inactive)
REMARK    1  A    between atoms: C1_1  and  C2_2 
REMARK    2  A    between atoms: C5_6  and  C9_12 
REMARK    3  A    between atoms: C6_8  and  C8_11 
ROOT
ATOM      1  C2  <0> d           0.002  -0.004   0.002  0.00  0.00    -0.057 C 
ATOM      2  H1  <0> d          -1.020  -0.381   0.010  0.00  0.00     0.039 H 
ATOM      3  C3  <0> d           0.718  -0.497  -1.257  0.00  0.00    -0.062 C 
ATOM      4  C4  <0> d           2.154   0.032  -1.268  0.00  0.00    -0.061 C 
ATOM      5  C5  <0> d           2.894  -0.475  -0.028  0.00  0.00    -0.054 C 
ATOM      6  H2  <0> d           2.908  -1.565  -0.034  0.00  0.00     0.040 H 
ATOM      7  C6  <0> d           2.178   0.019   1.231  0.00  0.00    -0.054 C 
ATOM      8  H3  <0> d           2.163   1.109   1.237  0.00  0.00     0.040 H 
ATOM      9  C7  <0> d           0.742  -0.511   1.242  0.00  0.00    -0.059 C 
ATOM     10  H7  <0> d           0.733  -1.587  -1.263  0.00  0.00     0.033 H 
ATOM     11  H8  <0> d           0.191  -0.136  -2.140  0.00  0.00     0.033 H 
ATOM     12  H9  <0> d           2.664  -0.319  -2.164  0.00  0.00     0.033 H 
ATOM     13  H10 <0> d           2.139   1.122  -1.262  0.00  0.00     0.033 H 
ATOM     14  H11 <0> d           0.232  -0.159   2.138  0.00  0.00     0.034 H 
ATOM     15  H12 <0> d           0.757  -1.601   1.236  0.00  0.00     0.034 H 
ENDROOT
BRANCH   1  16
ATOM     16  C1  <0> d          -0.019   1.526   0.010  0.00  0.00    -0.073 C 
ATOM     17  H4  <0> d           1.004   1.903   0.003  0.00  0.00     0.028 H 
ATOM     18  H5  <0> d          -0.546   1.887  -0.873  0.00  0.00     0.028 H 
ATOM     19  H6  <0> d          -0.529   1.877   0.907  0.00  0.00     0.028 H 
ENDBRANCH   1  16
BRANCH   7  20
ATOM     20  C8  <0> d           2.917  -0.488   2.470  0.00  0.00    -0.073 C 
ATOM     21  H13 <0> d           3.940  -0.111   2.462  0.00  0.00     0.028 H 
ATOM     22  H14 <0> d           2.407  -0.137   3.367  0.00  0.00     0.028 H 
ATOM     23  H15 <0> d           2.932  -1.578   2.464  0.00  0.00     0.028 H 
ENDBRANCH   7  20
BRANCH   5  24
ATOM     24  C9  <0> d           4.329   0.055  -0.039  0.00  0.00    -0.073 C 
ATOM     25  H16 <0> d           4.314   1.145  -0.033  0.00  0.00     0.028 H 
ATOM     26  H17 <0> d           4.856  -0.306   0.844  0.00  0.00     0.028 H 
ATOM     27  H18 <0> d           4.839  -0.297  -0.936  0.00  0.00     0.028 H 
ENDBRANCH   5  24
TORSDOF 3
