REMARK  3 active torsions:
REMARK  status: ('A' for Active; 'I' for Inactive)
REMARK    1  A    between atoms: C1_1  and  C2_2 
REMARK    2  A    between atoms: C2_2  and  C3_3 
REMARK    3  A    between atoms: C5_5  and  C6_8 
ROOT
ATOM      1  C3  <0> d           1.042   1.924   0.002  0.00  0.00     0.081 A 
ATOM      2  C4  <0> d          -0.013   1.076   0.008  0.00  0.00    -0.015 A 
ATOM      3  C5  <0> d          -1.145   1.937   0.017  0.00  0.00     0.163 A 
ATOM      4  N1  <0> d          -0.672   3.159   0.025  0.00  0.00    -0.121 NA
ATOM      5  O1  <0> d           0.537   3.165   0.014  0.00  0.00    -0.217 OA
ATOM      6  H6  <0> d           0.002  -0.004   0.002  0.00  0.00     0.091 H 
ENDROOT
BRANCH   1   7
ATOM      7  C2  <0> d           2.500   1.546  -0.014  0.00  0.00    -0.022 C 
ATOM      8  H4  <0> d           3.080   2.314   0.499  0.00  0.00     0.042 H 
ATOM      9  H5  <0> d           2.634   0.591   0.493  0.00  0.00     0.042 H 
BRANCH   7  10
ATOM     10  C1  <0> d           2.980   1.427  -1.462  0.00  0.00    -0.071 C 
ATOM     11  H1  <0> d           2.400   0.659  -1.974  0.00  0.00     0.028 H 
ATOM     12  H2  <0> d           2.846   2.382  -1.969  0.00  0.00     0.028 H 
ATOM     13  H3  <0> d           4.035   1.153  -1.474  0.00  0.00     0.028 H 
ENDBRANCH   7  10
ENDBRANCH   1   7
BRANCH   3  14
ATOM     14  C6  <0> d          -2.571   1.534   0.021  0.00  0.00     0.231 C 
ATOM     15  O2  <0> d          -2.869   0.357   0.015  0.00  0.00    -0.643 OA
ATOM     16  O3  <0> d          -3.537   2.473   0.029  0.00  0.00    -0.643 OA
ENDBRANCH   3  14
TORSDOF 3
