REMARK  5 active torsions:
REMARK  status: ('A' for Active; 'I' for Inactive)
REMARK    1  A    between atoms: C1_1  and  C2_2 
REMARK    2  A    between atoms: C5_6  and  C8_12 
REMARK    3  A    between atoms: C6_8  and  O1_11 
REMARK    4  A    between atoms: C8_12  and  C9_13 
REMARK    5  A    between atoms: C8_12  and  C10_14 
ROOT
ATOM      1  C2  <0> d           0.002  -0.004   0.002  0.00  0.00    -0.055 C 
ATOM      2  H1  <0> d           0.432  -0.356  -0.935  0.00  0.00     0.039 H 
ATOM      3  C3  <0> d          -1.427  -0.534   0.139  0.00  0.00    -0.061 C 
ATOM      4  C4  <0> d          -2.031  -0.040   1.454  0.00  0.00    -0.059 C 
ATOM      5  C5  <0> d          -1.185  -0.545   2.625  0.00  0.00    -0.026 C 
ATOM      6  H2  <0> d          -1.170  -1.635   2.619  0.00  0.00     0.044 H 
ATOM      7  C6  <0> d           0.244  -0.015   2.489  0.00  0.00     0.040 C 
ATOM      8  H3  <0> d           0.846  -0.374   3.323  0.00  0.00     0.083 H 
ATOM      9  C7  <0> d           0.848  -0.509   1.173  0.00  0.00    -0.038 C 
ATOM     10  H7  <0> d          -2.029  -0.174  -0.696  0.00  0.00     0.033 H 
ATOM     11  H8  <0> d          -1.412  -1.624   0.133  0.00  0.00     0.033 H 
ATOM     12  H9  <0> d          -2.045   1.050   1.460  0.00  0.00     0.033 H 
ATOM     13  H10 <0> d          -3.048  -0.417   1.552  0.00  0.00     0.033 H 
ATOM     14  H11 <0> d           0.862  -1.599   1.167  0.00  0.00     0.037 H 
ATOM     15  H12 <0> d           1.865  -0.131   1.076  0.00  0.00     0.037 H 
ENDROOT
BRANCH   5  16
ATOM     16  C8  <0> d          -1.789  -0.050   3.941  0.00  0.00    -0.055 C 
ATOM     17  H14 <0> d          -1.804   1.040   3.947  0.00  0.00     0.039 H 
BRANCH  16  18
ATOM     18  C9  <0> d          -3.218  -0.580   4.078  0.00  0.00    -0.073 C 
ATOM     19  H15 <0> d          -3.203  -1.670   4.072  0.00  0.00     0.028 H 
ATOM     20  H16 <0> d          -3.648  -0.228   5.015  0.00  0.00     0.028 H 
ATOM     21  H17 <0> d          -3.820  -0.220   3.244  0.00  0.00     0.028 H 
ENDBRANCH  16  18
BRANCH  16  22
ATOM     22  C10 <0> d          -0.944  -0.555   5.112  0.00  0.00    -0.073 C 
ATOM     23  H18 <0> d           0.074  -0.177   5.015  0.00  0.00     0.028 H 
ATOM     24  H19 <0> d          -1.374  -0.203   6.050  0.00  0.00     0.028 H 
ATOM     25  H20 <0> d          -0.929  -1.645   5.106  0.00  0.00     0.028 H 
ENDBRANCH  16  22
ENDBRANCH   5  16
BRANCH   7  26
ATOM     26  O1  <0> d           0.224   1.414   2.497  0.00  0.00    -0.395 OA
ATOM     27  H13 <0> d           1.098   1.820   2.413  0.00  0.00     0.210 HD
ENDBRANCH   7  26
BRANCH   1  28
ATOM     28  C1  <0> d          -0.019   1.526   0.010  0.00  0.00    -0.073 C 
ATOM     29  H4  <0> d           0.999   1.902   0.114  0.00  0.00     0.028 H 
ATOM     30  H5  <0> d          -0.447   1.889  -0.924  0.00  0.00     0.028 H 
ATOM     31  H6  <0> d          -0.623   1.876   0.847  0.00  0.00     0.028 H 
ENDBRANCH   1  28
TORSDOF 5
