REMARK  2 active torsions:
REMARK  status: ('A' for Active; 'I' for Inactive)
REMARK    1  A    between atoms: C1_1  and  C2_2 
REMARK    2  A    between atoms: C6_6  and  C8_8 
ROOT
ATOM      1  C2  <0> d           0.119   5.191   0.027  0.00  0.00    -0.061 A 
ATOM      2  C3  <0> d           1.345   5.835   0.020  0.00  0.00    -0.074 A 
ATOM      3  C4  <0> d           2.518   5.103   0.005  0.00  0.00    -0.044 A 
ATOM      4  C5  <0> d           2.474   3.721  -0.002  0.00  0.00     0.133 A 
ATOM      5  C6  <0> d           1.238   3.065   0.007  0.00  0.00     0.079 A 
ATOM      6  C7  <0> d           0.059   3.814   0.016  0.00  0.00    -0.058 A 
ATOM      7  F1  <0> d           3.620   3.006  -0.015  0.00  0.00    -0.205 F 
ATOM      8  H4  <0> d           1.385   6.914   0.025  0.00  0.00     0.084 H 
ATOM      9  H5  <0> d           3.470   5.612  -0.002  0.00  0.00     0.088 H 
ATOM     10  H6  <0> d          -0.899   3.314   0.018  0.00  0.00     0.086 H 
ENDROOT
BRANCH   1  11
ATOM     11  C1  <0> d          -1.153   5.998   0.043  0.00  0.00    -0.051 C 
ATOM     12  H1  <0> d          -1.469   6.198  -0.981  0.00  0.00     0.033 H 
ATOM     13  H2  <0> d          -1.932   5.439   0.561  0.00  0.00     0.033 H 
ATOM     14  H3  <0> d          -0.978   6.942   0.560  0.00  0.00     0.033 H 
ENDBRANCH   1  11
BRANCH   5  15
ATOM     15  C8  <0> d           1.181   1.591  -0.001  0.00  0.00     0.212 C 
ATOM     16  O1  <0> d           2.209   0.943  -0.014  0.00  0.00    -0.644 OA
ATOM     17  O2  <0> d          -0.011   0.963   0.007  0.00  0.00    -0.644 OA
ENDBRANCH   5  15
TORSDOF 2
