REMARK  2 active torsions:
REMARK  status: ('A' for Active; 'I' for Inactive)
REMARK    1  A    between atoms: C1_1  and  C2_2 
REMARK    2  A    between atoms: C2_2  and  N1_3 
ROOT
ATOM      1  N1  <0> d          -0.018   1.461   0.010  0.00  0.00    -0.343 N 
ATOM      2  C3  <0> d          -1.296   2.173   0.020  0.00  0.00     0.013 C 
ATOM      3  C4  <0> d          -1.203   3.419   0.902  0.00  0.00     0.011 C 
ATOM      4  N2  <0> d          -0.048   4.232   0.519  0.00  0.00    -0.351 N 
ATOM      5  C5  <0> d           1.104   3.638   0.148  0.00  0.00     0.309 C 
ATOM      6  O1  <0> d           2.097   4.302  -0.067  0.00  0.00    -0.262 OA
ATOM      7  C6  <0> d           1.141   2.149   0.003  0.00  0.00     0.311 C 
ATOM      8  O2  <0> d           2.200   1.569  -0.120  0.00  0.00    -0.262 OA
ATOM      9  H6  <0> d          -1.552   2.467  -0.998  0.00  0.00     0.066 H 
ATOM     10  H7  <0> d          -2.072   1.514   0.409  0.00  0.00     0.066 H 
ATOM     11  H8  <0> d          -1.102   3.119   1.945  0.00  0.00     0.066 H 
ATOM     12  H9  <0> d          -2.112   4.009   0.784  0.00  0.00     0.066 H 
ATOM     13  H10 <0> d          -0.111   5.199   0.533  0.00  0.00     0.162 HD
ENDROOT
BRANCH   1  14
ATOM     14  C2  <0> d           0.002  -0.004   0.002  0.00  0.00    -0.005 C 
ATOM     15  H4  <0> d          -0.888  -0.377  -0.505  0.00  0.00     0.063 H 
ATOM     16  H5  <0> d           0.892  -0.352  -0.522  0.00  0.00     0.063 H 
BRANCH  14  17
ATOM     17  C1  <0> d           0.023  -0.522   1.442  0.00  0.00    -0.061 C 
ATOM     18  H1  <0> d          -0.867  -0.173   1.966  0.00  0.00     0.029 H 
ATOM     19  H2  <0> d           0.037  -1.612   1.436  0.00  0.00     0.029 H 
ATOM     20  H3  <0> d           0.913  -0.149   1.949  0.00  0.00     0.029 H 
ENDBRANCH  14  17
ENDBRANCH   1  14
TORSDOF 2
