REMARK  1 active torsions:
REMARK  status: ('A' for Active; 'I' for Inactive)
REMARK    1  A    between atoms: C6_8  and  N4_11 
ROOT
ATOM      1  C1  <0> d           1.211  -0.703  -0.013  0.00  0.00     0.020 A 
ATOM      2  C2  <0> d           0.002  -0.004   0.002  0.00  0.00     0.021 A 
ATOM      3  N1  <0> d          -0.016   1.309   0.009  0.00  0.00    -0.238 NA
ATOM      4  C3  <0> d           1.136   1.991   0.002  0.00  0.00     0.178 A 
ATOM      5  C4  <0> d           2.362   1.279  -0.014  0.00  0.00     0.106 A 
ATOM      6  N2  <0> d           2.356  -0.058  -0.021  0.00  0.00    -0.256 NA
ATOM      7  C5  <0> d           3.570   1.999  -0.022  0.00  0.00    -0.025 A 
ATOM      8  C6  <0> d           3.505   3.379  -0.014  0.00  0.00     0.045 A 
ATOM      9  C7  <0> d           2.254   4.013   0.002  0.00  0.00     0.030 A 
ATOM     10  N3  <0> d           1.139   3.327   0.009  0.00  0.00    -0.237 NA
ATOM     11  H1  <0> d           1.205  -1.783  -0.019  0.00  0.00     0.117 H 
ATOM     12  H2  <0> d          -0.930  -0.550   0.008  0.00  0.00     0.117 H 
ATOM     13  H3  <0> d           4.522   1.488  -0.035  0.00  0.00     0.090 H 
ATOM     14  H4  <0> d           2.210   5.092   0.008  0.00  0.00     0.118 H 
ENDROOT
BRANCH   8  15
ATOM     15  N4  <0> d           4.676   4.138  -0.021  0.00  0.00    -0.398 N 
ATOM     16  H5  <0> d           5.539   3.697  -0.032  0.00  0.00     0.156 HD
ATOM     17  H6  <0> d           4.626   5.107  -0.015  0.00  0.00     0.156 HD
ENDBRANCH   8  15
TORSDOF 1
