REMARK  3 active torsions:
REMARK  status: ('A' for Active; 'I' for Inactive)
REMARK    1  A    between atoms: C1_1  and  C2_2 
REMARK    2  A    between atoms: C5_5  and  C8_8 
REMARK    3  A    between atoms: C8_8  and  C9_9 
REMARK       I    between atoms: C9_9  and  N1_11 
ROOT
ATOM      1  C2  <0> d           1.171   2.086   0.002  0.00  0.00    -0.062 A 
ATOM      2  C3  <0> d          -0.017   1.378   0.010  0.00  0.00    -0.077 A 
ATOM      3  C4  <0> d           0.002  -0.004   0.002  0.00  0.00    -0.076 A 
ATOM      4  C5  <0> d           1.208  -0.679  -0.013  0.00  0.00    -0.049 A 
ATOM      5  C6  <0> d           2.396   0.029  -0.021  0.00  0.00    -0.076 A 
ATOM      6  C7  <0> d           2.377   1.411  -0.015  0.00  0.00    -0.077 A 
ATOM      7  H4  <0> d          -0.959   1.905   0.017  0.00  0.00     0.084 H 
ATOM      8  H5  <0> d          -0.926  -0.557   0.008  0.00  0.00     0.084 H 
ATOM      9  H6  <0> d           3.339  -0.499  -0.032  0.00  0.00     0.084 H 
ATOM     10  H7  <0> d           3.305   1.963  -0.021  0.00  0.00     0.084 H 
ENDROOT
BRANCH   4  11
ATOM     11  C8  <0> d           1.229  -2.186  -0.021  0.00  0.00     0.033 C 
ATOM     12  H8  <0> d           2.129  -2.539   0.483  0.00  0.00     0.054 H 
ATOM     13  H9  <0> d           0.349  -2.563   0.500  0.00  0.00     0.054 H 
BRANCH  11  14
ATOM     14  C9  <0> d           1.222  -2.681  -1.444  0.00  0.00     0.219 C 
ATOM     15  O1  <0> d           1.202  -1.889  -2.362  0.00  0.00    -0.273 OA
ATOM     16  N1  <0> d           1.237  -4.005  -1.696  0.00  0.00    -0.370 N 
ATOM     17  H10 <0> d           1.253  -4.639  -0.962  0.00  0.00     0.159 HD
ATOM     18  H11 <0> d           1.232  -4.324  -2.612  0.00  0.00     0.159 HD
ENDBRANCH  11  14
ENDBRANCH   4  11
BRANCH   1  19
ATOM     19  C1  <0> d           1.151   3.592   0.010  0.00  0.00    -0.051 C 
ATOM     20  H1  <0> d           1.155   3.950   1.039  0.00  0.00     0.033 H 
ATOM     21  H2  <0> d           2.031   3.970  -0.510  0.00  0.00     0.033 H 
ATOM     22  H3  <0> d           0.251   3.946  -0.494  0.00  0.00     0.033 H 
ENDBRANCH   1  19
TORSDOF 3
