REMARK  8 active torsions:
REMARK  status: ('A' for Active; 'I' for Inactive)
REMARK    1  A    between atoms: C1_1  and  C2_2 
REMARK    2  A    between atoms: C2_2  and  C3_3 
REMARK    3  A    between atoms: C3_3  and  C4_4 
REMARK    4  A    between atoms: C4_4  and  C5_6 
REMARK    5  A    between atoms: C4_4  and  C8_11 
REMARK    6  A    between atoms: C5_6  and  C6_8 
REMARK    7  A    between atoms: C5_6  and  O1_10 
REMARK    8  A    between atoms: C6_8  and  C7_9 
ROOT
ATOM      1  C4  <0> d          -0.630   1.667   3.762  0.00  0.00     0.055 C 
ATOM      2  H1  <0> d          -0.648   2.754   3.681  0.00  0.00     0.060 H 
ENDROOT
BRANCH   1   3
ATOM      3  C3  <0> d           0.184   1.261   4.992  0.00  0.00    -0.050 C 
ATOM      4  H8  <0> d           0.129   0.180   5.124  0.00  0.00     0.034 H 
ATOM      5  H9  <0> d           1.224   1.557   4.853  0.00  0.00     0.034 H 
BRANCH   3   6
ATOM      6  C2  <0> d          -0.383   1.956   6.231  0.00  0.00    -0.068 C 
ATOM      7  H6  <0> d          -0.327   3.037   6.099  0.00  0.00     0.032 H 
ATOM      8  H7  <0> d          -1.422   1.660   6.370  0.00  0.00     0.032 H 
BRANCH   6   9
ATOM      9  C1  <0> d           0.432   1.550   7.461  0.00  0.00    -0.076 C 
ATOM     10  H3  <0> d           0.377   0.469   7.593  0.00  0.00     0.027 H 
ATOM     11  H4  <0> d           1.472   1.846   7.322  0.00  0.00     0.027 H 
ATOM     12  H5  <0> d           0.028   2.045   8.344  0.00  0.00     0.027 H 
ENDBRANCH   6   9
ENDBRANCH   3   6
ENDBRANCH   1   3
BRANCH   1  13
ATOM     13  C5  <0> d           0.011   1.072   2.506  0.00  0.00     0.048 C 
ATOM     14  H2  <0> d           1.057   1.375   2.454  0.00  0.00     0.084 H 
BRANCH  13  15
ATOM     15  C6  <0> d          -0.729   1.579   1.267  0.00  0.00    -0.044 C 
ATOM     16  H10 <0> d          -0.744   2.669   1.273  0.00  0.00     0.036 H 
ATOM     17  H11 <0> d          -1.751   1.202   1.275  0.00  0.00     0.036 H 
BRANCH  15  18
ATOM     18  C7  <0> d          -0.013   1.086   0.008  0.00  0.00    -0.074 C 
ATOM     19  H12 <0> d           0.002  -0.004   0.002  0.00  0.00     0.027 H 
ATOM     20  H13 <0> d           1.010   1.463   0.000  0.00  0.00     0.027 H 
ATOM     21  H14 <0> d          -0.540   1.447  -0.875  0.00  0.00     0.027 H 
ENDBRANCH  15  18
ENDBRANCH  13  15
BRANCH  13  22
ATOM     22  O1  <0> d          -0.070  -0.353   2.560  0.00  0.00    -0.395 OA
ATOM     23  H15 <0> d          -0.973  -0.695   2.607  0.00  0.00     0.210 HD
ENDBRANCH  13  22
ENDBRANCH   1  13
BRANCH   1  24
ATOM     24  C8  <0> d          -2.039   1.150   3.899  0.00  0.00     0.179 C 
ATOM     25  O2  <0> d          -2.484   0.384   3.077  0.00  0.00    -0.648 OA
ATOM     26  O3  <0> d          -2.799   1.540   4.935  0.00  0.00    -0.648 OA
ENDBRANCH   1  24
TORSDOF 8
