REMARK  7 active torsions:
REMARK  status: ('A' for Active; 'I' for Inactive)
REMARK    1  A    between atoms: C1_1  and  C2_2 
REMARK    2  A    between atoms: C2_2  and  C3_4 
REMARK    3  A    between atoms: C2_2  and  O1_10 
REMARK    4  A    between atoms: C3_4  and  C4_5 
REMARK    5  A    between atoms: C4_5  and  C5_6 
REMARK    6  A    between atoms: C6_7  and  C7_8 
REMARK    7  A    between atoms: C6_7  and  C8_9 
ROOT
ATOM      1  C4  <0> d          -0.845   1.907  -1.459  0.00  0.00    -0.047 C 
ATOM      2  H7  <0> d          -1.827   1.446  -1.361  0.00  0.00     0.038 H 
ATOM      3  H8  <0> d          -0.962   2.970  -1.671  0.00  0.00     0.038 H 
ENDROOT
BRANCH   1   4
ATOM      4  C3  <0> d          -0.066   1.732  -0.153  0.00  0.00    -0.038 C 
ATOM      5  H5  <0> d           0.052   0.669   0.059  0.00  0.00     0.037 H 
ATOM      6  H6  <0> d           0.917   2.193  -0.252  0.00  0.00     0.037 H 
BRANCH   4   7
ATOM      7  C2  <0> d          -0.831   2.399   0.991  0.00  0.00     0.032 C 
ATOM      8  H1  <0> d          -1.844   2.000   1.032  0.00  0.00     0.082 H 
BRANCH   7   9
ATOM      9  C1  <0> d          -0.117   2.117   2.314  0.00  0.00    -0.052 C 
ATOM     10  H2  <0> d          -0.663   2.593   3.130  0.00  0.00     0.030 H 
ATOM     11  H3  <0> d          -0.077   1.041   2.483  0.00  0.00     0.030 H 
ATOM     12  H4  <0> d           0.896   2.517   2.273  0.00  0.00     0.030 H 
ENDBRANCH   7   9
BRANCH   7  13
ATOM     13  O1  <0> d          -0.884   3.810   0.769  0.00  0.00    -0.396 OA
ATOM     14  H16 <0> d          -1.356   4.299   1.457  0.00  0.00     0.210 HD
ENDBRANCH   7  13
ENDBRANCH   4   7
ENDBRANCH   1   4
BRANCH   1  15
ATOM     15  C5  <0> d          -0.091   1.250  -2.586  0.00  0.00    -0.101 C 
ATOM     16  C6  <0> d          -0.682   0.350  -3.332  0.00  0.00    -0.091 C 
ATOM     17  H9  <0> d           0.937   1.521  -2.779  0.00  0.00     0.077 H 
BRANCH  16  18
ATOM     18  C7  <0> d          -2.148   0.057  -3.140  0.00  0.00    -0.055 C 
ATOM     19  H10 <0> d          -2.718   0.981  -3.237  0.00  0.00     0.033 H 
ATOM     20  H11 <0> d          -2.478  -0.654  -3.897  0.00  0.00     0.033 H 
ATOM     21  H12 <0> d          -2.307  -0.367  -2.149  0.00  0.00     0.033 H 
ENDBRANCH  16  18
BRANCH  16  22
ATOM     22  C8  <0> d           0.104  -0.394  -4.381  0.00  0.00    -0.055 C 
ATOM     23  H13 <0> d           0.528  -1.298  -3.945  0.00  0.00     0.033 H 
ATOM     24  H14 <0> d          -0.555  -0.663  -5.206  0.00  0.00     0.033 H 
ATOM     25  H15 <0> d           0.908   0.243  -4.751  0.00  0.00     0.033 H 
ENDBRANCH  16  22
ENDBRANCH   1  15
TORSDOF 7
