REMARK  0 active torsions:
REMARK  status: ('A' for Active; 'I' for Inactive)
ROOT
ATOM      1  C1  <0> d          -0.015   4.070   0.024  0.00  0.00    -0.027 A 
ATOM      2  C2  <0> d           1.154   3.335   0.009  0.00  0.00     0.008 A 
ATOM      3  N1  <0> d           1.123   2.016   0.002  0.00  0.00    -0.231 NA
ATOM      4  C3  <0> d          -0.016   1.347   0.009  0.00  0.00     0.234 A 
ATOM      5  C4  <0> d          -1.229   2.015   0.019  0.00  0.00     0.130 A 
ATOM      6  C5  <0> d          -1.234   3.405   0.032  0.00  0.00     0.144 A 
ATOM      7  F1  <0> d          -2.397   4.092   0.046  0.00  0.00    -0.204 F 
ATOM      8 Cl1  <0> d          -2.722   1.130   0.021  0.00  0.00    -0.076 Cl
ATOM      9  F2  <0> d           0.002  -0.004   0.002  0.00  0.00    -0.182 F 
ATOM     10  H1  <0> d           0.019   5.149   0.029  0.00  0.00     0.090 H 
ATOM     11  H2  <0> d           2.105   3.846   0.003  0.00  0.00     0.115 H 
ENDROOT
TORSDOF 0
