REMARK  5 active torsions:
REMARK  status: ('A' for Active; 'I' for Inactive)
REMARK    1  A    between atoms: C1_1  and  C2_2 
REMARK    2  A    between atoms: C2_2  and  C3_3 
REMARK    3  A    between atoms: C2_2  and  C4_4 
REMARK    4  A    between atoms: C5_5  and  O1_10 
REMARK    5  A    between atoms: O1_10  and  C8_11 
ROOT
ATOM      1  C4  <0> d           2.272   1.417  -0.012  0.00  0.00     0.090 A 
ATOM      2  C5  <0> d           2.294   0.026  -0.020  0.00  0.00     0.189 A 
ATOM      3  N1  <0> d           1.155  -0.651  -0.013  0.00  0.00    -0.234 NA
ATOM      4  C6  <0> d           0.002  -0.004   0.002  0.00  0.00     0.022 A 
ATOM      5  C7  <0> d          -0.017   1.378   0.010  0.00  0.00     0.019 A 
ATOM      6  N2  <0> d           1.118   2.057   0.002  0.00  0.00    -0.259 NA
ATOM      7  H8  <0> d          -0.926  -0.556   0.008  0.00  0.00     0.117 H 
ATOM      8  H9  <0> d          -0.960   1.904   0.017  0.00  0.00     0.117 H 
ENDROOT
BRANCH   1   9
ATOM      9  C2  <0> d           3.564   2.192  -0.020  0.00  0.00    -0.014 C 
ATOM     10  H4  <0> d           4.404   1.498  -0.031  0.00  0.00     0.048 H 
BRANCH   9  11
ATOM     11  C1  <0> d           3.619   3.080  -1.264  0.00  0.00    -0.068 C 
ATOM     12  H1  <0> d           2.779   3.775  -1.253  0.00  0.00     0.028 H 
ATOM     13  H2  <0> d           4.554   3.641  -1.270  0.00  0.00     0.028 H 
ATOM     14  H3  <0> d           3.563   2.458  -2.157  0.00  0.00     0.028 H 
ENDBRANCH   9  11
BRANCH   9  15
ATOM     15  C3  <0> d           3.642   3.066   1.234  0.00  0.00    -0.068 C 
ATOM     16  H5  <0> d           4.577   3.627   1.228  0.00  0.00     0.028 H 
ATOM     17  H6  <0> d           2.802   3.761   1.246  0.00  0.00     0.028 H 
ATOM     18  H7  <0> d           3.603   2.433   2.121  0.00  0.00     0.028 H 
ENDBRANCH   9  15
ENDBRANCH   1   9
BRANCH   2  19
ATOM     19  O1  <0> d           3.478  -0.635  -0.035  0.00  0.00    -0.338 OA
BRANCH  19  20
ATOM     20  C8  <0> d           3.424  -2.063  -0.042  0.00  0.00     0.012 C 
ATOM     21  H10 <0> d           2.906  -2.411   0.851  0.00  0.00     0.067 H 
ATOM     22  H11 <0> d           2.889  -2.402  -0.929  0.00  0.00     0.067 H 
ATOM     23  H12 <0> d           4.438  -2.465  -0.054  0.00  0.00     0.067 H 
ENDBRANCH  19  20
ENDBRANCH   2  19
TORSDOF 5
