REMARK  3 active torsions:
REMARK  status: ('A' for Active; 'I' for Inactive)
REMARK    1  A    between atoms: C1_1  and  N1_2 
REMARK    2  A    between atoms: N1_2  and  C2_3 
REMARK    3  A    between atoms: N1_2  and  C3_4 
ROOT
ATOM      1  C3  <0> d           1.105   3.078   0.008  0.00  0.00     0.142 A 
ATOM      2  C4  <0> d          -0.113   3.753   0.022  0.00  0.00     0.046 A 
ATOM      3  N2  <0> d          -1.243   3.072   0.029  0.00  0.00    -0.268 NA
ATOM      4  C5  <0> d          -1.219   1.749   0.017  0.00  0.00     0.019 A 
ATOM      5  C6  <0> d          -0.013   1.076   0.008  0.00  0.00     0.021 A 
ATOM      6  N3  <0> d           1.124   1.752   0.001  0.00  0.00    -0.241 NA
ATOM      7  H7  <0> d          -0.133   4.833   0.028  0.00  0.00     0.120 H 
ATOM      8  H8  <0> d          -2.145   1.194   0.019  0.00  0.00     0.117 H 
ATOM      9  H9  <0> d           0.002  -0.004   0.002  0.00  0.00     0.117 H 
ENDROOT
BRANCH   1  10
ATOM     10  N1  <0> d           2.298   3.792   0.001  0.00  0.00    -0.373 N 
BRANCH  10  11
ATOM     11  C1  <0> d           2.278   5.252   0.119  0.00  0.00    -0.018 C 
ATOM     12  H1  <0> d           2.329   5.532   1.171  0.00  0.00     0.056 H 
ATOM     13  H2  <0> d           3.135   5.671  -0.410  0.00  0.00     0.056 H 
ATOM     14  H3  <0> d           1.357   5.639  -0.317  0.00  0.00     0.056 H 
ENDBRANCH  10  11
BRANCH  10  15
ATOM     15  C2  <0> d           3.575   3.084  -0.125  0.00  0.00    -0.018 C 
ATOM     16  H4  <0> d           3.836   2.991  -1.179  0.00  0.00     0.056 H 
ATOM     17  H5  <0> d           4.353   3.644   0.394  0.00  0.00     0.056 H 
ATOM     18  H6  <0> d           3.485   2.092   0.316  0.00  0.00     0.056 H 
ENDBRANCH  10  15
ENDBRANCH   1  10
TORSDOF 3
