REMARK  3 active torsions:
REMARK  status: ('A' for Active; 'I' for Inactive)
REMARK    1  A    between atoms: C1_1  and  N1_2 
REMARK    2  A    between atoms: N1_2  and  C2_3 
REMARK       I    between atoms: N1_2  and  C3_4 
REMARK    3  A    between atoms: C3_4  and  C4_6 
ROOT
ATOM      1  C4  <0> d          -2.209   1.800   0.655  0.00  0.00     0.090 C 
ATOM      2  H1  <0> d          -2.812   0.909   0.830  0.00  0.00     0.087 H 
ATOM      3  C5  <0> d          -0.787   1.610   1.239  0.00  0.00    -0.030 C 
ATOM      4  C6  <0> d          -0.013   1.086   0.008  0.00  0.00     0.011 C 
ATOM      5  C7  <0> d          -0.793   1.611  -1.176  0.00  0.00     0.218 C 
ATOM      6  O2  <0> d          -0.377   1.667  -2.314  0.00  0.00    -0.274 OA
ATOM      7  N2  <0> d          -2.016   2.009  -0.784  0.00  0.00    -0.348 N 
ATOM      8  H8  <0> d          -0.789   0.872   2.042  0.00  0.00     0.037 H 
ATOM      9  H9  <0> d          -0.376   2.559   1.584  0.00  0.00     0.037 H 
ATOM     10  H10 <0> d           0.002  -0.004   0.002  0.00  0.00     0.047 H 
ATOM     11  H11 <0> d           1.003   1.480   0.000  0.00  0.00     0.047 H 
ATOM     12  H12 <0> d          -2.686   2.385  -1.377  0.00  0.00     0.163 HD
ENDROOT
BRANCH   1  13
ATOM     13  C3  <0> d          -2.869   3.005   1.274  0.00  0.00     0.241 C 
ATOM     14  N1  <0> d          -3.474   2.901   2.474  0.00  0.00    -0.359 N 
ATOM     15  O1  <0> d          -2.856   4.069   0.691  0.00  0.00    -0.271 OA
BRANCH  14  16
ATOM     16  C1  <0> d          -4.115   4.073   3.075  0.00  0.00    -0.017 C 
ATOM     17  H2  <0> d          -4.002   4.930   2.410  0.00  0.00     0.056 H 
ATOM     18  H3  <0> d          -5.175   3.869   3.227  0.00  0.00     0.056 H 
ATOM     19  H4  <0> d          -3.646   4.292   4.034  0.00  0.00     0.056 H 
ENDBRANCH  14  16
BRANCH  14  20
ATOM     20  C2  <0> d          -3.489   1.616   3.177  0.00  0.00    -0.017 C 
ATOM     21  H5  <0> d          -2.610   1.542   3.817  0.00  0.00     0.056 H 
ATOM     22  H6  <0> d          -4.390   1.546   3.787  0.00  0.00     0.056 H 
ATOM     23  H7  <0> d          -3.479   0.804   2.450  0.00  0.00     0.056 H 
ENDBRANCH  14  20
ENDBRANCH   1  13
TORSDOF 3
