REMARK  7 active torsions:
REMARK  status: ('A' for Active; 'I' for Inactive)
REMARK    1  A    between atoms: C1_1  and  C2_2 
REMARK    2  A    between atoms: C2_2  and  C3_4 
REMARK    3  A    between atoms: C2_2  and  O2_9 
REMARK    4  A    between atoms: C3_4  and  O1_5 
REMARK    5  A    between atoms: O1_5  and  C4_6 
REMARK    6  A    between atoms: C4_6  and  C5_7 
REMARK    7  A    between atoms: C4_6  and  C6_8 
ROOT
ATOM      1  C3  <0> d           0.718  -0.497  -1.257  0.00  0.00     0.043 C 
ATOM      2  H5  <0> d           0.812  -1.583  -1.220  0.00  0.00     0.078 H 
ATOM      3  H6  <0> d           0.143  -0.212  -2.138  0.00  0.00     0.078 H 
ENDROOT
BRANCH   1   4
ATOM      4  C2  <0> d           0.002  -0.004   0.002  0.00  0.00     0.052 C 
ATOM      5  H1  <0> d          -1.020  -0.381   0.010  0.00  0.00     0.085 H 
BRANCH   4   6
ATOM      6  C1  <0> d          -0.019   1.526   0.010  0.00  0.00    -0.051 C 
ATOM      7  H2  <0> d           1.004   1.903   0.003  0.00  0.00     0.031 H 
ATOM      8  H3  <0> d          -0.546   1.887  -0.873  0.00  0.00     0.031 H 
ATOM      9  H4  <0> d          -0.529   1.877   0.907  0.00  0.00     0.031 H 
ENDBRANCH   4   6
BRANCH   4  10
ATOM     10  O2  <0> d           0.693  -0.477   1.160  0.00  0.00    -0.394 OA
ATOM     11  H14 <0> d           0.294  -0.202   1.996  0.00  0.00     0.210 HD
ENDBRANCH   4  10
ENDBRANCH   1   4
BRANCH   1  12
ATOM     12  O1  <0> d           2.019   0.090  -1.326  0.00  0.00    -0.384 OA
BRANCH  12  13
ATOM     13  C4  <0> d           2.776  -0.307  -2.471  0.00  0.00     0.031 C 
ATOM     14  H7  <0> d           2.485  -1.315  -2.768  0.00  0.00     0.082 H 
BRANCH  13  15
ATOM     15  C5  <0> d           2.504   0.662  -3.624  0.00  0.00    -0.052 C 
ATOM     16  H8  <0> d           3.082   0.359  -4.497  0.00  0.00     0.030 H 
ATOM     17  H9  <0> d           1.442   0.648  -3.868  0.00  0.00     0.030 H 
ATOM     18  H10 <0> d           2.796   1.670  -3.327  0.00  0.00     0.030 H 
ENDBRANCH  13  15
BRANCH  13  19
ATOM     19  C6  <0> d           4.267  -0.287  -2.129  0.00  0.00    -0.052 C 
ATOM     20  H11 <0> d           4.460  -0.977  -1.308  0.00  0.00     0.030 H 
ATOM     21  H12 <0> d           4.844  -0.590  -3.002  0.00  0.00     0.030 H 
ATOM     22  H13 <0> d           4.558   0.721  -1.833  0.00  0.00     0.030 H 
ENDBRANCH  13  19
ENDBRANCH  12  13
ENDBRANCH   1  12
TORSDOF 7
