REMARK  3 active torsions:
REMARK  status: ('A' for Active; 'I' for Inactive)
REMARK    1  A    between atoms: C1_1  and  O1_2 
REMARK    2  A    between atoms: O1_2  and  C2_3 
REMARK    3  A    between atoms: C5_7  and  C7_9 
REMARK       I    between atoms: C7_9  and  N2_11 
ROOT
ATOM      1  C2  <0> d           2.378   1.366  -0.013  0.00  0.00     0.071 A 
ATOM      2  C3  <0> d           1.160   2.040   0.002  0.00  0.00    -0.034 A 
ATOM      3  C4  <0> d          -0.016   1.312   0.009  0.00  0.00     0.006 A 
ATOM      4  N1  <0> d           0.002  -0.004   0.002  0.00  0.00    -0.255 NA
ATOM      5  C5  <0> d           1.140  -0.688  -0.013  0.00  0.00     0.126 A 
ATOM      6  C6  <0> d           2.364  -0.026  -0.021  0.00  0.00    -0.018 A 
ATOM      7  H4  <0> d           1.134   3.119   0.008  0.00  0.00     0.089 H 
ATOM      8  H5  <0> d          -0.963   1.831   0.017  0.00  0.00     0.114 H 
ATOM      9  H6  <0> d           3.289  -0.584  -0.033  0.00  0.00     0.091 H 
ENDROOT
BRANCH   1  10
ATOM     10  O1  <0> d           3.551   2.049  -0.021  0.00  0.00    -0.356 OA
BRANCH  10  11
ATOM     11  C1  <0> d           3.471   3.476  -0.013  0.00  0.00     0.010 C 
ATOM     12  H1  <0> d           2.929   3.814  -0.896  0.00  0.00     0.066 H 
ATOM     13  H2  <0> d           2.946   3.805   0.884  0.00  0.00     0.066 H 
ATOM     14  H3  <0> d           4.476   3.896  -0.021  0.00  0.00     0.066 H 
ENDBRANCH  10  11
ENDBRANCH   1  10
BRANCH   5  15
ATOM     15  C7  <0> d           1.107  -2.170  -0.020  0.00  0.00     0.268 C 
ATOM     16  O2  <0> d           2.145  -2.801  -0.033  0.00  0.00    -0.266 OA
ATOM     17  N2  <0> d          -0.076  -2.817  -0.011  0.00  0.00    -0.365 N 
ATOM     18  H7  <0> d          -0.904  -2.313  -0.001  0.00  0.00     0.159 HD
ATOM     19  H8  <0> d          -0.098  -3.786  -0.016  0.00  0.00     0.159 HD
ENDBRANCH   5  15
TORSDOF 3
