REMARK  2 active torsions:
REMARK  status: ('A' for Active; 'I' for Inactive)
REMARK    1  A    between atoms: C4_4  and  N2_8 
REMARK    2  A    between atoms: C5_5  and  N1_7 
ROOT
ATOM      1  C1  <0> d           5.027   0.640  -0.276  0.00  0.00    -0.081 A 
ATOM      2  C2  <0> d           4.046  -0.273   0.068  0.00  0.00    -0.081 A 
ATOM      3  C3  <0> d           2.756   0.154   0.316  0.00  0.00    -0.053 A 
ATOM      4  C4  <0> d           2.441   1.502   0.223  0.00  0.00     0.084 A 
ATOM      5  C5  <0> d           3.429   2.421  -0.128  0.00  0.00     0.054 A 
ATOM      6  C6  <0> d           4.723   1.984  -0.372  0.00  0.00    -0.055 A 
ATOM      7  H1  <0> d           6.034   0.300  -0.470  0.00  0.00     0.083 H 
ATOM      8  H2  <0> d           4.289  -1.323   0.141  0.00  0.00     0.083 H 
ATOM      9  H3  <0> d           1.992  -0.561   0.584  0.00  0.00     0.087 H 
ATOM     10  H4  <0> d           5.492   2.694  -0.640  0.00  0.00     0.087 H 
ENDROOT
BRANCH   4  11
ATOM     11  N2  <0> d           1.132   1.938   0.475  0.00  0.00    -0.243 N 
ATOM     12  N3  <0> d           0.765   3.017   1.290  0.00  0.00    -0.180 NA
ATOM     13  C9  <0> d          -0.541   3.112   1.278  0.00  0.00     0.023 A 
ATOM     14  C8  <0> d          -1.047   2.103   0.453  0.00  0.00    -0.047 A 
ATOM     15  H9  <0> d          -1.127   3.847   1.811  0.00  0.00     0.117 H 
ATOM     16  C7  <0> d           0.001   1.391  -0.025  0.00  0.00     0.006 A 
ATOM     17  H8  <0> d          -2.089   1.922   0.236  0.00  0.00     0.087 H 
ATOM     18  H7  <0> d          -0.056   0.541  -0.689  0.00  0.00     0.114 H 
ENDBRANCH   4  11
BRANCH   5  19
ATOM     19  N1  <0> d           3.118   3.780  -0.230  0.00  0.00    -0.397 N 
ATOM     20  H5  <0> d           2.197   4.074  -0.147  0.00  0.00     0.156 HD
ATOM     21  H6  <0> d           3.822   4.429  -0.383  0.00  0.00     0.156 HD
ENDBRANCH   5  19
TORSDOF 2
