REMARK  4 active torsions:
REMARK  status: ('A' for Active; 'I' for Inactive)
REMARK    1  A    between atoms: C1_1  and  C2_2 
REMARK    2  A    between atoms: C1_1  and  C4_9 
REMARK    3  A    between atoms: C2_2  and  C3_4 
REMARK    4  A    between atoms: C2_2  and  O1_8 
ROOT
ATOM      1  C2  <0> d           2.696   3.548  -0.005  0.00  0.00     0.138 C 
ATOM      2  H1  <0> d           3.226   3.088   0.830  0.00  0.00     0.097 H 
ENDROOT
BRANCH   1   3
ATOM      3  C1  <0> d           1.235   3.094   0.007  0.00  0.00     0.048 C 
ATOM      4  H2  <0> d           0.727   3.482  -0.876  0.00  0.00     0.053 H 
ATOM      5  H3  <0> d           0.744   3.473   0.904  0.00  0.00     0.053 H 
BRANCH   3   6
ATOM      6  C4  <0> d           1.177   1.588  -0.001  0.00  0.00     0.175 C 
ATOM      7  O2  <0> d           2.199   0.944  -0.014  0.00  0.00    -0.648 OA
ATOM      8  O3  <0> d          -0.011   0.963   0.007  0.00  0.00    -0.648 OA
ENDBRANCH   3   6
ENDBRANCH   1   3
BRANCH   1   9
ATOM      9  C3  <0> d           2.758   5.071   0.129  0.00  0.00     0.413 C 
ATOM     10  F1  <0> d           2.159   5.459   1.332  0.00  0.00    -0.168 F 
ATOM     11  F2  <0> d           4.094   5.486   0.118  0.00  0.00    -0.168 F 
ATOM     12  F3  <0> d           2.078   5.661  -0.942  0.00  0.00    -0.168 F 
ENDBRANCH   1   9
BRANCH   1  13
ATOM     13  O1  <0> d           3.308   3.152  -1.234  0.00  0.00    -0.386 OA
ATOM     14  H4  <0> d           2.887   3.525  -2.021  0.00  0.00     0.210 HD
ENDBRANCH   1  13
TORSDOF 4
