REMARK  7 active torsions:
REMARK  status: ('A' for Active; 'I' for Inactive)
REMARK    1  A    between atoms: C1_1  and  C2_2 
REMARK    2  A    between atoms: C2_2  and  C3_3 
REMARK    3  A    between atoms: C3_3  and  O1_4 
REMARK    4  A    between atoms: O1_4  and  C4_5 
REMARK    5  A    between atoms: C4_5  and  C5_7 
REMARK    6  A    between atoms: C4_5  and  C7_9 
REMARK    7  A    between atoms: C5_7  and  C6_8 
REMARK       I    between atoms: C7_9  and  N1_11 
ROOT
ATOM      1  C4  <0> d          -0.729   1.579   1.267  0.00  0.00     0.114 C 
ATOM      2  H1  <0> d          -1.776   1.277   1.232  0.00  0.00     0.098 H 
ENDROOT
BRANCH   1   3
ATOM      3  O1  <0> d          -0.647   3.004   1.334  0.00  0.00    -0.377 OA
BRANCH   3   4
ATOM      4  C3  <0> d          -1.755   3.620   1.993  0.00  0.00     0.020 C 
ATOM      5  H7  <0> d          -2.675   3.375   1.462  0.00  0.00     0.074 H 
ATOM      6  H8  <0> d          -1.818   3.253   3.017  0.00  0.00     0.074 H 
BRANCH   4   7
ATOM      7  C2  <0> d          -1.562   5.138   2.006  0.00  0.00    -0.049 C 
ATOM      8  H5  <0> d          -0.642   5.382   2.537  0.00  0.00     0.035 H 
ATOM      9  H6  <0> d          -1.499   5.505   0.982  0.00  0.00     0.035 H 
BRANCH   7  10
ATOM     10  C1  <0> d          -2.749   5.797   2.712  0.00  0.00    -0.075 C 
ATOM     11  H2  <0> d          -3.669   5.552   2.181  0.00  0.00     0.027 H 
ATOM     12  H3  <0> d          -2.812   5.430   3.736  0.00  0.00     0.027 H 
ATOM     13  H4  <0> d          -2.611   6.878   2.721  0.00  0.00     0.027 H 
ENDBRANCH   7  10
ENDBRANCH   4   7
ENDBRANCH   3   4
ENDBRANCH   1   3
BRANCH   1  14
ATOM     14  C5  <0> d          -0.013   1.086   0.008  0.00  0.00    -0.036 C 
ATOM     15  H9  <0> d           0.002  -0.004   0.002  0.00  0.00     0.036 H 
ATOM     16  H10 <0> d           1.010   1.463   0.000  0.00  0.00     0.036 H 
BRANCH  14  17
ATOM     17  C6  <0> d          -0.753   1.593  -1.232  0.00  0.00    -0.074 C 
ATOM     18  H11 <0> d          -1.775   1.215  -1.224  0.00  0.00     0.027 H 
ATOM     19  H12 <0> d          -0.767   2.683  -1.226  0.00  0.00     0.027 H 
ATOM     20  H13 <0> d          -0.242   1.241  -2.128  0.00  0.00     0.027 H 
ENDBRANCH  14  17
ENDBRANCH   1  14
BRANCH   1  21
ATOM     21  C7  <0> d          -0.074   0.981   2.485  0.00  0.00     0.244 C 
ATOM     22  O2  <0> d           0.494   1.697   3.282  0.00  0.00    -0.271 OA
ATOM     23  N1  <0> d          -0.119  -0.351   2.688  0.00  0.00    -0.368 N 
ATOM     24  H14 <0> d          -0.574  -0.924   2.051  0.00  0.00     0.159 HD
ATOM     25  H15 <0> d           0.302  -0.736   3.472  0.00  0.00     0.159 HD
ENDBRANCH   1  21
TORSDOF 7
