REMARK  1 active torsions:
REMARK  status: ('A' for Active; 'I' for Inactive)
REMARK    1  A    between atoms: C4_5  and  C5_7 
ROOT
ATOM      1  C1  <0> d           0.002  -0.004   0.002  0.00  0.00     0.020 A 
ATOM      2  C2  <0> d          -0.017   1.384   0.010  0.00  0.00     0.021 A 
ATOM      3  N1  <0> d           1.115   2.064   0.003  0.00  0.00    -0.245 NA
ATOM      4  C3  <0> d           2.273   1.424  -0.012  0.00  0.00     0.161 A 
ATOM      5  C4  <0> d           2.294   0.028  -0.020  0.00  0.00     0.173 A 
ATOM      6  N2  <0> d           1.150  -0.651  -0.013  0.00  0.00    -0.250 NA
ATOM      7 Cl1  <0> d           3.761   2.318  -0.022  0.00  0.00    -0.060 Cl
ATOM      8  H1  <0> d          -0.927  -0.555   0.008  0.00  0.00     0.117 H 
ATOM      9  H2  <0> d          -0.960   1.909   0.017  0.00  0.00     0.117 H 
ENDROOT
BRANCH   5  10
ATOM     10  C5  <0> d           3.586  -0.694  -0.036  0.00  0.00     0.232 C 
ATOM     11  O1  <0> d           4.629  -0.072  -0.043  0.00  0.00    -0.643 OA
ATOM     12  O2  <0> d           3.604  -2.041  -0.044  0.00  0.00    -0.643 OA
ENDBRANCH   5  10
TORSDOF 1
