REMARK  2 active torsions:
REMARK  status: ('A' for Active; 'I' for Inactive)
REMARK    1  A    between atoms: C4_4  and  C7_8 
REMARK    2  A    between atoms: C6_6  and  N1_7 
REMARK       I    between atoms: C7_8  and  N2_10 
ROOT
ATOM      1  C1  <0> d          -1.250   3.039   0.030  0.00  0.00    -0.055 A 
ATOM      2  C2  <0> d          -2.452   3.719   0.035  0.00  0.00    -0.043 A 
ATOM      3  C3  <0> d          -3.646   3.022   0.037  0.00  0.00     0.132 A 
ATOM      4  C4  <0> d          -3.638   1.624   0.029  0.00  0.00     0.072 A 
ATOM      5  C5  <0> d          -2.422   0.939   0.019  0.00  0.00    -0.040 A 
ATOM      6  C6  <0> d          -1.232   1.649   0.017  0.00  0.00     0.026 A 
ATOM      7  F1  <0> d          -4.820   3.691   0.046  0.00  0.00    -0.205 F 
ATOM      8  H1  <0> d          -0.320   3.588   0.033  0.00  0.00     0.087 H 
ATOM      9  H2  <0> d          -2.459   4.799   0.041  0.00  0.00     0.088 H 
ATOM     10  H3  <0> d          -2.408  -0.141   0.013  0.00  0.00     0.088 H 
ENDROOT
BRANCH   4  11
ATOM     11  C7  <0> d          -4.911   0.875   0.030  0.00  0.00     0.252 C 
ATOM     12  O1  <0> d          -5.968   1.474   0.039  0.00  0.00    -0.268 OA
ATOM     13  N2  <0> d          -4.899  -0.473   0.022  0.00  0.00    -0.366 N 
ATOM     14  H6  <0> d          -4.055  -0.951   0.015  0.00  0.00     0.159 HD
ATOM     15  H7  <0> d          -5.735  -0.965   0.023  0.00  0.00     0.159 HD
ENDBRANCH   4  11
BRANCH   6  16
ATOM     16  N1  <0> d          -0.011   0.966   0.007  0.00  0.00    -0.399 N 
ATOM     17  H4  <0> d           0.002  -0.004   0.002  0.00  0.00     0.156 HD
ATOM     18  H5  <0> d           0.822   1.462   0.002  0.00  0.00     0.156 HD
ENDBRANCH   6  16
TORSDOF 2
