REMARK  4 active torsions:
REMARK  status: ('A' for Active; 'I' for Inactive)
REMARK    1  A    between atoms: C1_1  and  C2_2 
REMARK    2  A    between atoms: C2_2  and  C3_3 
REMARK    3  A    between atoms: C2_2  and  C4_4 
REMARK    4  A    between atoms: C4_4  and  N1_5 
ROOT
ATOM      1  N1  <0> d          -0.008  -0.140   2.444  0.00  0.00    -0.352 N 
ATOM      2  C5  <0> d           0.289   1.144   3.066  0.00  0.00    -0.002 C 
ATOM      3  C6  <0> d          -0.860   1.576   3.978  0.00  0.00    -0.050 C 
ATOM      4  C7  <0> d          -1.199   0.415   4.922  0.00  0.00    -0.056 C 
ATOM      5  C8  <0> d          -1.794  -0.725   4.092  0.00  0.00     0.009 C 
ATOM      6  C9  <0> d          -0.924  -0.996   2.898  0.00  0.00     0.219 C 
ATOM      7  O1  <0> d          -1.060  -2.053   2.318  0.00  0.00    -0.273 OA
ATOM      8  H10 <0> d           1.203   1.057   3.653  0.00  0.00     0.064 H 
ATOM      9  H11 <0> d           0.434   1.895   2.289  0.00  0.00     0.064 H 
ATOM     10  H12 <0> d          -0.556   2.445   4.562  0.00  0.00     0.035 H 
ATOM     11  H13 <0> d          -1.733   1.824   3.375  0.00  0.00     0.035 H 
ATOM     12  H14 <0> d          -0.294   0.072   5.422  0.00  0.00     0.033 H 
ATOM     13  H15 <0> d          -1.926   0.747   5.664  0.00  0.00     0.033 H 
ATOM     14  H16 <0> d          -1.860  -1.623   4.706  0.00  0.00     0.047 H 
ATOM     15  H17 <0> d          -2.791  -0.445   3.753  0.00  0.00     0.047 H 
ENDROOT
BRANCH   1  16
ATOM     16  C4  <0> d           0.742  -0.511   1.242  0.00  0.00     0.000 C 
ATOM     17  H8  <0> d           0.835  -1.596   1.191  0.00  0.00     0.065 H 
ATOM     18  H9  <0> d           1.735  -0.063   1.280  0.00  0.00     0.065 H 
BRANCH  16  19
ATOM     19  C2  <0> d           0.002  -0.004   0.002  0.00  0.00    -0.045 C 
ATOM     20  H4  <0> d          -1.020  -0.381   0.010  0.00  0.00     0.041 H 
BRANCH  19  21
ATOM     21  C1  <0> d          -0.019   1.526   0.010  0.00  0.00    -0.072 C 
ATOM     22  H1  <0> d           1.004   1.903   0.003  0.00  0.00     0.028 H 
ATOM     23  H2  <0> d          -0.546   1.887  -0.873  0.00  0.00     0.028 H 
ATOM     24  H3  <0> d          -0.529   1.877   0.907  0.00  0.00     0.028 H 
ENDBRANCH  19  21
BRANCH  19  25
ATOM     25  C3  <0> d           0.718  -0.497  -1.257  0.00  0.00    -0.072 C 
ATOM     26  H5  <0> d           1.741  -0.120  -1.264  0.00  0.00     0.028 H 
ATOM     27  H6  <0> d           0.733  -1.587  -1.263  0.00  0.00     0.028 H 
ATOM     28  H7  <0> d           0.191  -0.136  -2.140  0.00  0.00     0.028 H 
ENDBRANCH  19  25
ENDBRANCH  16  19
ENDBRANCH   1  16
TORSDOF 4
