REMARK  1 active torsions:
REMARK  status: ('A' for Active; 'I' for Inactive)
REMARK    1  A    between atoms: C1_1  and  C2_2 
ROOT
ATOM      1  C2  <0> d           0.002  -0.004   0.002  0.00  0.00    -0.020 A 
ATOM      2  C3  <0> d           0.006  -0.696  -1.195  0.00  0.00    -0.053 A 
ATOM      3  C4  <0> d           0.026  -2.096  -1.153  0.00  0.00     0.062 A 
ATOM      4  C5  <0> d           0.041  -2.734   0.089  0.00  0.00     0.024 A 
ATOM      5  N1  <0> d           0.036  -2.031   1.203  0.00  0.00    -0.247 NA
ATOM      6  C6  <0> d           0.023  -0.710   1.193  0.00  0.00     0.131 A 
ATOM      7 Cl1  <0> d           0.025   0.154   2.699  0.00  0.00    -0.062 Cl
ATOM      8  C7  <0> d           0.030  -2.861  -2.364  0.00  0.00     0.101 C 
ATOM      9  N2  <0> d           0.034  -3.468  -3.324  0.00  0.00    -0.191 NA
ATOM     10  H4  <0> d          -0.006  -0.171  -2.139  0.00  0.00     0.086 H 
ATOM     11  H5  <0> d           0.055  -3.812   0.137  0.00  0.00     0.117 H 
ENDROOT
BRANCH   1  12
ATOM     12  C1  <0> d          -0.018   1.503   0.010  0.00  0.00    -0.048 C 
ATOM     13  H1  <0> d           1.004   1.880   0.003  0.00  0.00     0.033 H 
ATOM     14  H2  <0> d          -0.545   1.864  -0.873  0.00  0.00     0.033 H 
ATOM     15  H3  <0> d          -0.529   1.854   0.907  0.00  0.00     0.033 H 
ENDBRANCH   1  12
TORSDOF 1
