REMARK  3 active torsions:
REMARK  status: ('A' for Active; 'I' for Inactive)
REMARK    1  A    between atoms: C1_1  and  O1_2 
REMARK    2  A    between atoms: O1_2  and  C2_3 
REMARK    3  A    between atoms: C3_5  and  N3_8 
ROOT
ATOM      1  C2  <0> d           1.260   2.002   0.001  0.00  0.00     0.277 A 
ATOM      2  N1  <0> d           2.150   1.034  -0.013  0.00  0.00    -0.181 NA
ATOM      3  C3  <0> d           1.723  -0.221  -0.016  0.00  0.00     0.186 A 
ATOM      4  S1  <0> d           0.002  -0.004   0.002  0.00  0.00     0.054 SA
ATOM      5  N2  <0> d          -0.021   1.708   0.011  0.00  0.00    -0.165 NA
ENDROOT
BRANCH   1   6
ATOM      6  O1  <0> d           1.662   3.300   0.004  0.00  0.00    -0.324 OA
BRANCH   6   7
ATOM      7  C1  <0> d           0.638   4.296   0.020  0.00  0.00     0.013 C 
ATOM      8  H1  <0> d           1.099   5.295   0.021  0.00  0.00     0.067 H 
ATOM      9  H2  <0> d           0.023   4.176   0.923  0.00  0.00     0.067 H 
ATOM     10  H3  <0> d           0.005   4.185  -0.873  0.00  0.00     0.067 H 
ENDBRANCH   6   7
ENDBRANCH   1   6
BRANCH   3  11
ATOM     11  N3  <0> d           2.456  -1.394  -0.029  0.00  0.00    -0.377 N 
ATOM     12  H4  <0> d           1.940  -2.365  -0.029  0.00  0.00     0.158 HD
ATOM     13  H5  <0> d           3.555  -1.355  -0.038  0.00  0.00     0.158 HD
ENDBRANCH   3  11
TORSDOF 3
