REMARK  2 active torsions:
REMARK  status: ('A' for Active; 'I' for Inactive)
REMARK    1  A    between atoms: C1_1  and  C2_2 
REMARK    2  A    between atoms: C2_2  and  C3_3 
ROOT
ATOM      1  C3  <0> d          -1.231   3.023   0.030  0.00  0.00     0.075 A 
ATOM      2  C4  <0> d          -0.049   3.750   0.023  0.00  0.00     0.158 A 
ATOM      3  C5  <0> d           1.153   3.055   0.007  0.00  0.00     0.043 A 
ATOM      4  N1  <0> d           1.130   1.732   0.001  0.00  0.00    -0.251 NA
ATOM      5  C6  <0> d          -0.013   1.076   0.008  0.00  0.00     0.086 A 
ATOM      6  N2  <0> d          -1.173   1.701   0.017  0.00  0.00    -0.243 NA
ATOM      7  F1  <0> d          -0.067   5.101   0.030  0.00  0.00    -0.202 F 
ATOM      8  H6  <0> d           2.093   3.587   0.002  0.00  0.00     0.119 H 
ATOM      9  H7  <0> d           0.002  -0.004   0.002  0.00  0.00     0.146 H 
ENDROOT
BRANCH   1  10
ATOM     10  C2  <0> d          -2.563   3.728   0.046  0.00  0.00    -0.025 C 
ATOM     11  H4  <0> d          -3.296   3.110   0.564  0.00  0.00     0.042 H 
ATOM     12  H5  <0> d          -2.462   4.682   0.564  0.00  0.00     0.042 H 
BRANCH  10  13
ATOM     13  C1  <0> d          -3.027   3.975  -1.391  0.00  0.00    -0.071 C 
ATOM     14  H1  <0> d          -3.990   4.485  -1.379  0.00  0.00     0.028 H 
ATOM     15  H2  <0> d          -2.293   4.593  -1.909  0.00  0.00     0.028 H 
ATOM     16  H3  <0> d          -3.127   3.021  -1.909  0.00  0.00     0.028 H 
ENDBRANCH  10  13
ENDBRANCH   1  10
TORSDOF 2
