REMARK  5 active torsions:
REMARK  status: ('A' for Active; 'I' for Inactive)
REMARK    1  A    between atoms: C1_1  and  C2_2 
REMARK    2  A    between atoms: C2_2  and  C3_3 
REMARK    3  A    between atoms: C3_3  and  O1_4 
REMARK    4  A    between atoms: O1_4  and  C4_5 
REMARK    5  A    between atoms: C7_8  and  C10_11 
ROOT
ATOM      1  C4  <0> d           1.213  -0.680  -0.013  0.00  0.00     0.068 A 
ATOM      2  C5  <0> d           0.002  -0.004   0.002  0.00  0.00    -0.050 A 
ATOM      3  C6  <0> d          -0.017   1.377   0.010  0.00  0.00    -0.075 A 
ATOM      4  C7  <0> d           1.171   2.086   0.002  0.00  0.00    -0.062 A 
ATOM      5  C8  <0> d           2.379   1.415  -0.013  0.00  0.00    -0.075 A 
ATOM      6  C9  <0> d           2.403   0.033  -0.021  0.00  0.00    -0.050 A 
ATOM      7  H8  <0> d          -0.925  -0.557   0.008  0.00  0.00     0.087 H 
ATOM      8  H9  <0> d          -0.960   1.904   0.017  0.00  0.00     0.084 H 
ATOM      9  H10 <0> d           3.305   1.970  -0.019  0.00  0.00     0.084 H 
ATOM     10  H11 <0> d           3.348  -0.491  -0.032  0.00  0.00     0.087 H 
ENDROOT
BRANCH   1  11
ATOM     11  O1  <0> d           1.234  -2.039  -0.020  0.00  0.00    -0.351 OA
BRANCH  11  12
ATOM     12  C3  <0> d           2.518  -2.668  -0.036  0.00  0.00     0.026 C 
ATOM     13  H6  <0> d           3.061  -2.362  -0.930  0.00  0.00     0.075 H 
ATOM     14  H7  <0> d           3.079  -2.371   0.850  0.00  0.00     0.075 H 
BRANCH  12  15
ATOM     15  C2  <0> d           2.341  -4.188  -0.042  0.00  0.00    -0.048 C 
ATOM     16  H4  <0> d           1.797  -4.494   0.852  0.00  0.00     0.035 H 
ATOM     17  H5  <0> d           1.780  -4.484  -0.928  0.00  0.00     0.035 H 
BRANCH  15  18
ATOM     18  C1  <0> d           3.715  -4.861  -0.059  0.00  0.00    -0.075 C 
ATOM     19  H1  <0> d           3.588  -5.944  -0.063  0.00  0.00     0.027 H 
ATOM     20  H2  <0> d           4.258  -4.555  -0.953  0.00  0.00     0.027 H 
ATOM     21  H3  <0> d           4.276  -4.564   0.827  0.00  0.00     0.027 H 
ENDBRANCH  15  18
ENDBRANCH  12  15
ENDBRANCH  11  12
ENDBRANCH   1  11
BRANCH   4  22
ATOM     22  C10 <0> d           1.147   3.593   0.011  0.00  0.00    -0.051 C 
ATOM     23  H12 <0> d           1.151   3.950   1.040  0.00  0.00     0.033 H 
ATOM     24  H13 <0> d           2.026   3.973  -0.510  0.00  0.00     0.033 H 
ATOM     25  H14 <0> d           0.247   3.945  -0.493  0.00  0.00     0.033 H 
ENDBRANCH   4  22
TORSDOF 5
