REMARK  2 active torsions:
REMARK  status: ('A' for Active; 'I' for Inactive)
REMARK    1  A    between atoms: C3_4  and  O4_10 
REMARK    2  A    between atoms: C4_6  and  O3_9 
ROOT
ATOM      1  C1  <0> d           1.336   1.718  -2.413  0.00  0.00     0.043 C 
ATOM      2  C2  <0> d           2.069   1.209  -1.168  0.00  0.00     0.043 C 
ATOM      3  O1  <0> d           1.329   1.582  -0.002  0.00  0.00    -0.354 OA
ATOM      4  C3  <0> d          -0.013   1.086   0.008  0.00  0.00     0.175 C 
ATOM      5  H1  <0> d           0.002  -0.004   0.002  0.00  0.00     0.136 H 
ATOM      6  C4  <0> d          -0.746   1.595  -1.236  0.00  0.00     0.175 C 
ATOM      7  H2  <0> d          -0.831   2.680  -1.191  0.00  0.00     0.136 H 
ATOM      8  O2  <0> d          -0.006   1.221  -2.403  0.00  0.00    -0.354 OA
ATOM      9  H3  <0> d           1.321   2.808  -2.407  0.00  0.00     0.077 H 
ATOM     10  H4  <0> d           1.849   1.365  -3.308  0.00  0.00     0.077 H 
ATOM     11  H5  <0> d           3.064   1.652  -1.126  0.00  0.00     0.077 H 
ATOM     12  H6  <0> d           2.154   0.123  -1.214  0.00  0.00     0.077 H 
ENDROOT
BRANCH   4  13
ATOM     13  O4  <0> d          -0.684   1.548   1.182  0.00  0.00    -0.367 OA
ATOM     14  H8  <0> d          -0.271   1.264   2.009  0.00  0.00     0.212 HD
ENDBRANCH   4  13
BRANCH   6  15
ATOM     15  O3  <0> d          -2.051   1.014  -1.292  0.00  0.00    -0.367 OA
ATOM     16  H7  <0> d          -2.573   1.293  -2.057  0.00  0.00     0.212 HD
ENDBRANCH   6  15
TORSDOF 2
