REMARK  2 active torsions:
REMARK  status: ('A' for Active; 'I' for Inactive)
REMARK    1  A    between atoms: C7_7  and  C10_11 
REMARK    2  A    between atoms: C10_11  and  O1_12 
ROOT
ATOM      1  C1  <0> d           0.077  -2.781  -0.015  0.00  0.00    -0.082 A 
ATOM      2  C2  <0> d          -1.142  -2.106   0.000  0.00  0.00    -0.081 A 
ATOM      3  C3  <0> d          -1.192  -0.746   0.009  0.00  0.00    -0.054 A 
ATOM      4  C4  <0> d           0.002  -0.004   0.002  0.00  0.00     0.067 A 
ATOM      5  C5  <0> d           1.241  -0.692  -0.013  0.00  0.00     0.001 A 
ATOM      6  C6  <0> d           1.254  -2.097  -0.022  0.00  0.00    -0.070 A 
ATOM      7  C7  <0> d           2.435   0.052  -0.020  0.00  0.00    -0.021 A 
ATOM      8  C8  <0> d           2.345   1.415  -0.012  0.00  0.00    -0.057 A 
ATOM      9  C9  <0> d           1.095   2.029   0.003  0.00  0.00     0.003 A 
ATOM     10  N1  <0> d          -0.016   1.332   0.009  0.00  0.00    -0.260 NA
ATOM     11  H1  <0> d           0.088  -3.861  -0.022  0.00  0.00     0.083 H 
ATOM     12  H2  <0> d          -2.062  -2.671   0.006  0.00  0.00     0.083 H 
ATOM     13  H3  <0> d          -2.146  -0.239   0.021  0.00  0.00     0.087 H 
ATOM     14  H4  <0> d           2.193  -2.631  -0.034  0.00  0.00     0.084 H 
ATOM     15  H5  <0> d           3.242   2.016  -0.017  0.00  0.00     0.086 H 
ATOM     16  H6  <0> d           1.039   3.108   0.009  0.00  0.00     0.114 H 
ENDROOT
BRANCH   7  17
ATOM     17  C10 <0> d           3.776  -0.635  -0.036  0.00  0.00     0.041 C 
ATOM     18  H7  <0> d           3.873  -1.263   0.849  0.00  0.00     0.081 H 
ATOM     19  H8  <0> d           3.857  -1.254  -0.930  0.00  0.00     0.081 H 
BRANCH  17  20
ATOM     20  O1  <0> d           4.814   0.346  -0.041  0.00  0.00    -0.396 OA
ATOM     21  H9  <0> d           5.707  -0.025  -0.051  0.00  0.00     0.209 HD
ENDBRANCH  17  20
ENDBRANCH   7  17
TORSDOF 2
