REMARK  3 active torsions:
REMARK  status: ('A' for Active; 'I' for Inactive)
REMARK    1  A    between atoms: C2_2  and  C3_3 
REMARK    2  A    between atoms: C3_3  and  N1_4 
REMARK       I    between atoms: N1_4  and  C4_5 
REMARK       I    between atoms: C4_5  and  N2_7 
REMARK    3  A    between atoms: N2_7  and  C5_8 
ROOT
ATOM      1  C1  <0> d           0.018  -1.178  -0.004  0.00  0.00    -0.152 C 
ATOM      2  C2  <0> d           0.002  -0.004   0.002  0.00  0.00    -0.098 C 
ATOM      3  H1  <0> d           0.032  -2.228  -0.010  0.00  0.00     0.166 H 
ENDROOT
BRANCH   2   4
ATOM      4  C3  <0> d          -0.018   1.468   0.010  0.00  0.00     0.051 C 
ATOM      5  H2  <0> d          -0.545   1.829  -0.873  0.00  0.00     0.083 H 
ATOM      6  H3  <0> d          -0.528   1.819   0.907  0.00  0.00     0.083 H 
BRANCH   4   7
ATOM      7  N1  <0> d           1.357   1.975  -0.000  0.00  0.00    -0.333 N 
ATOM      8  C4  <0> d           1.585   3.303   0.005  0.00  0.00     0.317 C 
ATOM      9  O1  <0> d           0.650   4.081   0.018  0.00  0.00    -0.247 OA
ATOM     10  N2  <0> d           2.849   3.770  -0.005  0.00  0.00    -0.339 N 
ATOM     11  H5  <0> d           3.595   3.149  -0.015  0.00  0.00     0.164 HD
ATOM     12  H4  <0> d           2.102   1.355  -0.011  0.00  0.00     0.165 HD
BRANCH  10  13
ATOM     13  C5  <0> d           3.097   5.213   0.001  0.00  0.00     0.014 A 
ATOM     14  C7  <0> d           4.435   5.698   0.564  0.00  0.00    -0.044 A 
ATOM     15  C6  <0> d           4.176   5.748  -0.943  0.00  0.00    -0.044 A 
ATOM     16  H9  <0> d           4.439   6.644   1.105  0.00  0.00     0.036 H 
ATOM     17  H10 <0> d           5.130   4.943   0.931  0.00  0.00     0.036 H 
ATOM     18  H7  <0> d           4.701   5.026  -1.568  0.00  0.00     0.036 H 
ATOM     19  H8  <0> d           4.011   6.727  -1.393  0.00  0.00     0.036 H 
ATOM     20  H6  <0> d           2.222   5.840   0.172  0.00  0.00     0.072 H 
ENDBRANCH  10  13
ENDBRANCH   4   7
ENDBRANCH   2   4
TORSDOF 3
