REMARK  2 active torsions:
REMARK  status: ('A' for Active; 'I' for Inactive)
REMARK       I    between atoms: N1_4  and  C6_7 
REMARK    1  A    between atoms: C6_7  and  C7_9 
REMARK    2  A    between atoms: C7_9  and  O2_10 
ROOT
ATOM      1  C1  <0> d          -0.042   3.956   1.094  0.00  0.00    -0.062 C 
ATOM      2  C2  <0> d           1.221   3.095   1.174  0.00  0.00    -0.050 C 
ATOM      3  C3  <0> d           1.238   2.109   0.002  0.00  0.00    -0.002 C 
ATOM      4  N1  <0> d          -0.016   1.344   0.009  0.00  0.00    -0.350 N 
ATOM      5  C4  <0> d          -1.290   2.075   0.019  0.00  0.00    -0.002 C 
ATOM      6  C5  <0> d          -1.279   3.061   1.198  0.00  0.00    -0.050 C 
ATOM      7  C6  <0> d           0.002  -0.004   0.002  0.00  0.00     0.243 C 
ATOM      8  O1  <0> d           1.060  -0.596  -0.011  0.00  0.00    -0.271 OA
ATOM      9  H1  <0> d          -0.044   4.675   1.913  0.00  0.00     0.033 H 
ATOM     10  H2  <0> d          -0.058   4.489   0.143  0.00  0.00     0.033 H 
ATOM     11  H3  <0> d           1.226   2.542   2.114  0.00  0.00     0.035 H 
ATOM     12  H4  <0> d           2.102   3.735   1.124  0.00  0.00     0.035 H 
ATOM     13  H5  <0> d           2.082   1.429   0.108  0.00  0.00     0.064 H 
ATOM     14  H6  <0> d           1.326   2.656  -0.937  0.00  0.00     0.064 H 
ATOM     15  H7  <0> d          -1.405   2.621  -0.917  0.00  0.00     0.064 H 
ATOM     16  H8  <0> d          -2.115   1.371   0.138  0.00  0.00     0.064 H 
ATOM     17  H9  <0> d          -1.251   2.509   2.137  0.00  0.00     0.035 H 
ATOM     18  H10 <0> d          -2.177   3.677   1.164  0.00  0.00     0.035 H 
ENDROOT
BRANCH   7  19
ATOM     19  C7  <0> d          -1.293  -0.775   0.010  0.00  0.00     0.090 C 
ATOM     20  H11 <0> d          -1.859  -0.524   0.907  0.00  0.00     0.088 H 
ATOM     21  H12 <0> d          -1.876  -0.515  -0.873  0.00  0.00     0.088 H 
BRANCH  19  22
ATOM     22  O2  <0> d          -1.012  -2.176   0.000  0.00  0.00    -0.392 OA
ATOM     23  H13 <0> d          -1.802  -2.735   0.005  0.00  0.00     0.210 HD
ENDBRANCH  19  22
ENDBRANCH   7  19
TORSDOF 2
