REMARK  3 active torsions:
REMARK  status: ('A' for Active; 'I' for Inactive)
REMARK    1  A    between atoms: N3_5  and  C3_6 
REMARK    2  A    between atoms: C3_6  and  C4_7 
REMARK    3  A    between atoms: C4_7  and  C5_8 
ROOT
ATOM      1  C3  <0> d          -1.156  -0.901   0.008  0.00  0.00     0.010 C 
ATOM      2  H3  <0> d          -0.893  -1.830   0.515  0.00  0.00     0.065 H 
ATOM      3  H4  <0> d          -1.983  -0.423   0.533  0.00  0.00     0.065 H 
ENDROOT
BRANCH   1   4
ATOM      4  N3  <0> d           0.002  -0.004   0.002  0.00  0.00    -0.333 N 
ATOM      5  C1  <0> d          -0.016   1.351   0.009  0.00  0.00     0.088 A 
ATOM      6  N1  <0> d           1.224   1.756  -0.000  0.00  0.00    -0.144 NA
ATOM      7  H1  <0> d          -0.895   1.979   0.025  0.00  0.00     0.146 H 
ATOM      8  N2  <0> d           2.012   0.739  -0.013  0.00  0.00    -0.144 NA
ATOM      9  C2  <0> d           1.309  -0.361  -0.012  0.00  0.00     0.088 A 
ATOM     10  H2  <0> d           1.698  -1.368  -0.022  0.00  0.00     0.146 H 
ENDBRANCH   1   4
BRANCH   1  11
ATOM     11  C4  <0> d          -1.573  -1.206  -1.432  0.00  0.00     0.031 C 
ATOM     12  H5  <0> d          -1.836  -0.277  -1.938  0.00  0.00     0.051 H 
ATOM     13  H6  <0> d          -0.746  -1.684  -1.956  0.00  0.00     0.051 H 
BRANCH  11  14
ATOM     14  C5  <0> d          -2.764  -2.128  -1.426  0.00  0.00     0.174 C 
ATOM     15  O1  <0> d          -3.236  -2.507  -0.367  0.00  0.00    -0.648 OA
ATOM     16  O2  <0> d          -3.256  -2.496  -2.479  0.00  0.00    -0.648 OA
ENDBRANCH  11  14
ENDBRANCH   1  11
TORSDOF 3
