REMARK  5 active torsions:
REMARK  status: ('A' for Active; 'I' for Inactive)
REMARK    1  A    between atoms: C1_1  and  C2_2 
REMARK    2  A    between atoms: C2_2  and  C3_3 
REMARK    3  A    between atoms: C3_3  and  C7_9 
REMARK    4  A    between atoms: C5_5  and  C6_7 
REMARK    5  A    between atoms: C7_9  and  C8_10 
ROOT
ATOM      1  C3  <0> d          -0.470   1.031   0.218  0.00  0.00    -0.027 A 
ATOM      2  C4  <0> d           1.035   1.301   0.269  0.00  0.00    -0.044 A 
ATOM      3  C5  <0> d           0.521  -0.120   0.031  0.00  0.00     0.038 A 
ATOM      4  H1  <0> d           0.622  -0.835   0.847  0.00  0.00     0.057 H 
ATOM      5  H7  <0> d           1.482   1.824  -0.577  0.00  0.00     0.035 H 
ATOM      6  H8  <0> d           1.474   1.521   1.242  0.00  0.00     0.035 H 
ENDROOT
BRANCH   1   7
ATOM      7  C2  <0> d          -1.233   1.515  -1.017  0.00  0.00    -0.060 C 
ATOM      8  H5  <0> d          -1.898   2.331  -0.736  0.00  0.00     0.033 H 
ATOM      9  H6  <0> d          -0.525   1.865  -1.768  0.00  0.00     0.033 H 
BRANCH   7  10
ATOM     10  C1  <0> d          -2.057   0.360  -1.591  0.00  0.00    -0.076 C 
ATOM     11  H2  <0> d          -1.387  -0.419  -1.954  0.00  0.00     0.027 H 
ATOM     12  H3  <0> d          -2.702  -0.048  -0.814  0.00  0.00     0.027 H 
ATOM     13  H4  <0> d          -2.669   0.726  -2.416  0.00  0.00     0.027 H 
ENDBRANCH   7  10
ENDBRANCH   1   7
BRANCH   1  14
ATOM     14  C7  <0> d          -1.243   1.090   1.537  0.00  0.00    -0.060 C 
ATOM     15  H9  <0> d          -1.913   0.232   1.604  0.00  0.00     0.033 H 
ATOM     16  H10 <0> d          -0.542   1.068   2.371  0.00  0.00     0.033 H 
BRANCH  14  17
ATOM     17  C8  <0> d          -2.061   2.381   1.592  0.00  0.00    -0.076 C 
ATOM     18  H11 <0> d          -2.862   2.336   0.853  0.00  0.00     0.027 H 
ATOM     19  H12 <0> d          -2.491   2.498   2.587  0.00  0.00     0.027 H 
ATOM     20  H13 <0> d          -1.414   3.231   1.374  0.00  0.00     0.027 H 
ENDBRANCH  14  17
ENDBRANCH   1  14
BRANCH   3  21
ATOM     21  C6  <0> d           0.670  -0.691  -1.356  0.00  0.00     0.177 C 
ATOM     22  O1  <0> d           0.479   0.010  -2.322  0.00  0.00    -0.648 OA
ATOM     23  O2  <0> d           1.015  -1.977  -1.519  0.00  0.00    -0.648 OA
ENDBRANCH   3  21
TORSDOF 5
