REMARK  2 active torsions:
REMARK  status: ('A' for Active; 'I' for Inactive)
REMARK    1  A    between atoms: C1_1  and  C2_2 
REMARK    2  A    between atoms: C2_2  and  C3_3 
ROOT
ATOM      1  C3  <0> d           0.731  -0.503   1.223  0.00  0.00     0.029 A 
ATOM      2  C4  <0> d           0.172  -0.872   2.371  0.00  0.00     0.003 A 
ATOM      3  N1  <0> d           1.186  -1.264   3.232  0.00  0.00    -0.317 N 
ATOM      4  H1  <0> d           1.070  -1.583   4.141  0.00  0.00     0.170 HD
ATOM      5  C5  <0> d           2.360  -1.127   2.585  0.00  0.00     0.324 A 
ATOM      6  O1  <0> d           3.461  -1.380   3.039  0.00  0.00    -0.247 OA
ATOM      7  N2  <0> d           2.103  -0.665   1.345  0.00  0.00    -0.311 N 
ATOM      8  H2  <0> d           2.762  -0.477   0.659  0.00  0.00     0.170 HD
ATOM      9  H8  <0> d          -0.884  -0.866   2.594  0.00  0.00     0.114 H 
ENDROOT
BRANCH   1  10
ATOM     10  C2  <0> d           0.002  -0.004   0.002  0.00  0.00    -0.029 C 
ATOM     11  H6  <0> d          -1.020  -0.381   0.010  0.00  0.00     0.041 H 
ATOM     12  H7  <0> d           0.512  -0.356  -0.895  0.00  0.00     0.041 H 
BRANCH  10  13
ATOM     13  C1  <0> d          -0.019   1.526   0.010  0.00  0.00    -0.071 C 
ATOM     14  H3  <0> d           1.004   1.903   0.003  0.00  0.00     0.028 H 
ATOM     15  H4  <0> d          -0.546   1.887  -0.873  0.00  0.00     0.028 H 
ATOM     16  H5  <0> d          -0.529   1.877   0.907  0.00  0.00     0.028 H 
ENDBRANCH  10  13
ENDBRANCH   1  10
TORSDOF 2
