REMARK  2 active torsions:
REMARK  status: ('A' for Active; 'I' for Inactive)
REMARK    1  A    between atoms: C3_6  and  N7_11 
REMARK    2  A    between atoms: C4_8  and  N6_10 
ROOT
ATOM      1  C1  <0> d           1.202   1.755   0.000  0.00  0.00     0.128 A 
ATOM      2  N1  <0> d          -0.015   1.283   0.009  0.00  0.00    -0.127 NA
ATOM      3  N2  <0> d           0.002  -0.004   0.002  0.00  0.00     0.046 NA
ATOM      4  C2  <0> d           1.249  -0.432  -0.012  0.00  0.00     0.783 A 
ATOM      5  N3  <0> d           2.051   0.686  -0.014  0.00  0.00     0.038 N 
ATOM      6  C3  <0> d           3.410   0.538  -0.028  0.00  0.00     0.736 A 
ATOM      7  N4  <0> d           3.927  -0.676  -0.040  0.00  0.00     0.129 NA
ATOM      8  C4  <0> d           3.139  -1.756  -0.039  0.00  0.00     0.751 A 
ATOM      9  N5  <0> d           1.821  -1.646  -0.025  0.00  0.00     0.133 NA
ATOM     10  H1  <0> d           1.484   2.797   0.003  0.00  0.00     0.149 H 
ENDROOT
BRANCH   6  11
ATOM     11  N7  <0> d           4.226   1.637  -0.029  0.00  0.00    -0.231 N 
ATOM     12  H4  <0> d           5.189   1.526  -0.038  0.00  0.00     0.174 HD
ATOM     13  H5  <0> d           3.840   2.527  -0.020  0.00  0.00     0.174 HD
ENDBRANCH   6  11
BRANCH   8  14
ATOM     14  N6  <0> d           3.712  -3.011  -0.051  0.00  0.00    -0.230 N 
ATOM     15  H2  <0> d           3.149  -3.801  -0.050  0.00  0.00     0.174 HD
ATOM     16  H3  <0> d           4.677  -3.104  -0.062  0.00  0.00     0.174 HD
ENDBRANCH   8  14
TORSDOF 2
