REMARK  1 active torsions:
REMARK  status: ('A' for Active; 'I' for Inactive)
REMARK    1  A    between atoms: C4_4  and  C7_7 
ROOT
ATOM      1  C7  <0> d           3.711  -0.707  -0.038  0.00  0.00     0.127 C 
ATOM      2  H1  <0> d           4.511  -0.045   0.296  0.00  0.00     0.091 H 
ATOM      3  C8  <0> d           4.010  -1.214  -1.464  0.00  0.00    -0.033 C 
ATOM      4  C9  <0> d           4.650  -2.605  -1.214  0.00  0.00    -0.040 C 
ATOM      5  C10 <0> d           3.850  -3.100   0.017  0.00  0.00     0.083 C 
ATOM      6  N1  <0> d           3.637  -1.888   0.842  0.00  0.00    -0.067 N 
ATOM      7  H7  <0> d           3.090  -1.311  -2.040  0.00  0.00     0.036 H 
ATOM      8  H8  <0> d           4.714  -0.551  -1.969  0.00  0.00     0.036 H 
ATOM      9  H9  <0> d           4.498  -3.264  -2.069  0.00  0.00     0.035 H 
ATOM     10  H10 <0> d           5.710  -2.511  -0.979  0.00  0.00     0.035 H 
ATOM     11  H11 <0> d           2.895  -3.521  -0.295  0.00  0.00     0.075 H 
ATOM     12  H12 <0> d           4.428  -3.839   0.573  0.00  0.00     0.075 H 
ATOM     13  H13 <0> d           4.352  -1.828   1.552  0.00  0.00     0.277 HD
ATOM     14  H14 <0> d           2.729  -1.929   1.280  0.00  0.00     0.277 HD
ENDROOT
BRANCH   1  15
ATOM     15  C4  <0> d           2.396   0.029  -0.020  0.00  0.00    -0.028 A 
ATOM     16  C3  <0> d           2.377   1.411  -0.013  0.00  0.00    -0.075 A 
ATOM     17  C2  <0> d           1.171   2.086   0.002  0.00  0.00    -0.082 A 
ATOM     18  H4  <0> d           3.305   1.963  -0.020  0.00  0.00     0.084 H 
ATOM     19  C1  <0> d          -0.017   1.378   0.010  0.00  0.00    -0.083 A 
ATOM     20  H3  <0> d           1.156   3.165   0.008  0.00  0.00     0.083 H 
ATOM     21  C6  <0> d           0.002  -0.004   0.002  0.00  0.00    -0.082 A 
ATOM     22  H2  <0> d          -0.959   1.905   0.026  0.00  0.00     0.083 H 
ATOM     23  C5  <0> d           1.208  -0.679  -0.012  0.00  0.00    -0.075 A 
ATOM     24  H6  <0> d          -0.926  -0.557   0.008  0.00  0.00     0.083 H 
ATOM     25  H5  <0> d           1.223  -1.759  -0.018  0.00  0.00     0.084 H 
ENDBRANCH   1  15
TORSDOF 1
