REMARK  2 active torsions:
REMARK  status: ('A' for Active; 'I' for Inactive)
REMARK    1  A    between atoms: C1_1  and  C2_2 
REMARK    2  A    between atoms: C2_2  and  C3_4 
ROOT
ATOM      1  C3  <0> d          -1.228   3.141   0.030  0.00  0.00     0.012 A 
ATOM      2  C4  <0> d          -1.223   1.740   0.017  0.00  0.00    -0.053 A 
ATOM      3  C5  <0> d          -0.013   1.076   0.008  0.00  0.00     0.003 A 
ATOM      4  N1  <0> d           1.125   1.741   0.001  0.00  0.00    -0.273 NA
ATOM      5  C6  <0> d           1.167   3.059   0.007  0.00  0.00     0.003 A 
ATOM      6  C7  <0> d           0.005   3.805   0.022  0.00  0.00    -0.053 A 
ATOM      7  H4  <0> d          -2.152   1.189   0.019  0.00  0.00     0.087 H 
ATOM      8  H5  <0> d           0.002  -0.004   0.002  0.00  0.00     0.114 H 
ATOM      9  H6  <0> d           2.122   3.561   0.001  0.00  0.00     0.114 H 
ATOM     10  H7  <0> d           0.046   4.884   0.027  0.00  0.00     0.087 H 
ENDROOT
BRANCH   1  11
ATOM     11  C2  <0> d          -2.497   3.895   0.045  0.00  0.00     0.155 C 
ATOM     12  O1  <0> d          -2.481   5.103   0.051  0.00  0.00    -0.293 OA
BRANCH  11  13
ATOM     13  C1  <0> d          -3.811   3.158   0.054  0.00  0.00    -0.017 C 
ATOM     14  H1  <0> d          -3.641   2.173   0.048  0.00  0.00     0.038 H 
ATOM     15  H2  <0> d          -4.371   3.425   0.951  0.00  0.00     0.038 H 
ATOM     16  H3  <0> d          -4.388   3.433  -0.829  0.00  0.00     0.038 H 
ENDBRANCH  11  13
ENDBRANCH   1  11
TORSDOF 2
