REMARK  0 active torsions:
REMARK  status: ('A' for Active; 'I' for Inactive)
ROOT
ATOM      1  C1  <0> d           1.204  -0.697  -0.013  0.00  0.00    -0.082 A 
ATOM      2  C2  <0> d           0.002  -0.004   0.002  0.00  0.00    -0.080 A 
ATOM      3  C3  <0> d          -0.017   1.374   0.010  0.00  0.00    -0.049 A 
ATOM      4  C4  <0> d           1.179   2.083   0.002  0.00  0.00     0.089 A 
ATOM      5  C5  <0> d           2.395   1.381  -0.013  0.00  0.00     0.048 A 
ATOM      6  C6  <0> d           2.400  -0.013  -0.021  0.00  0.00    -0.066 A 
ATOM      7  C7  <0> d           3.650   2.157  -0.022  0.00  0.00     0.186 A 
ATOM      8  O1  <0> d           4.737   1.606  -0.035  0.00  0.00    -0.287 OA
ATOM      9  C8  <0> d           3.538   3.573  -0.013  0.00  0.00    -0.012 A 
ATOM     10  C9  <0> d           2.319   4.143   0.001  0.00  0.00     0.023 A 
ATOM     11  O2  <0> d           1.186   3.432   0.009  0.00  0.00    -0.322 OA
ATOM     12  H1  <0> d           1.203  -1.776  -0.019  0.00  0.00     0.083 H 
ATOM     13  H2  <0> d          -0.929  -0.551   0.008  0.00  0.00     0.083 H 
ATOM     14  H3  <0> d          -0.959   1.902   0.017  0.00  0.00     0.087 H 
ATOM     15  H4  <0> d           3.336  -0.552  -0.033  0.00  0.00     0.085 H 
ATOM     16  H5  <0> d           4.425   4.188  -0.018  0.00  0.00     0.092 H 
ATOM     17  H6  <0> d           2.252   5.221   0.007  0.00  0.00     0.123 H 
ENDROOT
TORSDOF 0
