REMARK  5 active torsions:
REMARK  status: ('A' for Active; 'I' for Inactive)
REMARK    1  A    between atoms: C1_1  and  C2_2 
REMARK    2  A    between atoms: C2_2  and  C3_3 
REMARK    3  A    between atoms: C2_2  and  C4_4 
REMARK    4  A    between atoms: C4_4  and  C5_5 
REMARK    5  A    between atoms: C5_5  and  C9_11 
ROOT
ATOM      1  C5  <0> d          -1.928   3.817  -0.337  0.00  0.00     0.160 C 
ATOM      2  O1  <0> d          -1.317   3.460  -1.579  0.00  0.00    -0.355 OA
ATOM      3  C6  <0> d          -1.457   2.075  -1.914  0.00  0.00     0.025 C 
ATOM      4  C7  <0> d          -0.846   1.228  -0.792  0.00  0.00    -0.025 C 
ATOM      5  C8  <0> d          -1.490   1.628   0.540  0.00  0.00     0.025 C 
ATOM      6  O2  <0> d          -1.351   3.042   0.717  0.00  0.00    -0.355 OA
ATOM      7  H10 <0> d          -0.936   1.872  -2.850  0.00  0.00     0.074 H 
ATOM      8  H11 <0> d          -2.514   1.831  -2.022  0.00  0.00     0.074 H 
ATOM      9  H12 <0> d          -1.036   0.173  -0.987  0.00  0.00     0.039 H 
ATOM     10  H13 <0> d           0.228   1.404  -0.745  0.00  0.00     0.039 H 
ATOM     11  H14 <0> d          -2.548   1.366   0.527  0.00  0.00     0.074 H 
ATOM     12  H15 <0> d          -0.993   1.105   1.357  0.00  0.00     0.074 H 
ENDROOT
BRANCH   1  13
ATOM     13  C4  <0> d          -1.695   5.304  -0.063  0.00  0.00    -0.011 C 
ATOM     14  H8  <0> d          -2.038   5.889  -0.916  0.00  0.00     0.041 H 
ATOM     15  H9  <0> d          -2.249   5.600   0.828  0.00  0.00     0.041 H 
BRANCH  13  16
ATOM     16  C2  <0> d          -0.202   5.553   0.159  0.00  0.00    -0.056 C 
ATOM     17  H4  <0> d           0.167   4.884   0.936  0.00  0.00     0.039 H 
BRANCH  16  18
ATOM     18  C1  <0> d           0.558   5.292  -1.143  0.00  0.00    -0.073 C 
ATOM     19  H1  <0> d           1.595   5.611  -1.028  0.00  0.00     0.028 H 
ATOM     20  H2  <0> d           0.529   4.228  -1.373  0.00  0.00     0.028 H 
ATOM     21  H3  <0> d           0.093   5.853  -1.954  0.00  0.00     0.028 H 
ENDBRANCH  16  18
BRANCH  16  22
ATOM     22  C3  <0> d           0.014   7.005   0.593  0.00  0.00    -0.073 C 
ATOM     23  H5  <0> d          -0.528   7.191   1.521  0.00  0.00     0.028 H 
ATOM     24  H6  <0> d           1.077   7.183   0.752  0.00  0.00     0.028 H 
ATOM     25  H7  <0> d          -0.355   7.675  -0.183  0.00  0.00     0.028 H 
ENDBRANCH  16  22
ENDBRANCH  13  16
ENDBRANCH   1  13
BRANCH   1  26
ATOM     26  C9  <0> d          -3.431   3.541  -0.409  0.00  0.00    -0.025 C 
ATOM     27  H16 <0> d          -3.597   2.481  -0.604  0.00  0.00     0.035 H 
ATOM     28  H17 <0> d          -3.896   3.813   0.538  0.00  0.00     0.035 H 
ATOM     29  H18 <0> d          -3.870   4.132  -1.213  0.00  0.00     0.035 H 
ENDBRANCH   1  26
TORSDOF 5
