REMARK  3 active torsions:
REMARK  status: ('A' for Active; 'I' for Inactive)
REMARK    1  A    between atoms: C2_2  and  N1_3 
REMARK    2  A    between atoms: C5_7  and  C6_8 
REMARK    3  A    between atoms: C6_8  and  O1_9 
ROOT
ATOM      1  N1  <0> d           0.602   3.170   0.013  0.00  0.00    -0.319 N 
ATOM      2  C3  <0> d           1.067   1.880   0.002  0.00  0.00     0.003 A 
ATOM      3  C4  <0> d          -0.013   1.076   0.008  0.00  0.00     0.019 A 
ATOM      4  N2  <0> d          -1.110   1.847   0.017  0.00  0.00    -0.243 NA
ATOM      5  C5  <0> d          -0.755   3.103   0.026  0.00  0.00     0.133 A 
ATOM      6  H4  <0> d           2.102   1.569  -0.010  0.00  0.00     0.114 H 
ATOM      7  H5  <0> d           0.002  -0.004   0.002  0.00  0.00     0.117 H 
ENDROOT
BRANCH   1   8
ATOM      8  C2  <0> d           1.376   4.332   0.013  0.00  0.00    -0.023 C 
ATOM      9  C1  <0> d           2.691   4.247  -0.001  0.00  0.00    -0.106 C 
ATOM     10  H1  <0> d           3.301   5.163  -0.001  0.00  0.00     0.068 H 
ATOM     11  H2  <0> d           3.179   3.261  -0.011  0.00  0.00     0.068 H 
ATOM     12  H3  <0> d           0.888   5.318   0.023  0.00  0.00     0.110 H 
ENDBRANCH   1   8
BRANCH   5  13
ATOM     13  C6  <0> d          -1.694   4.282   0.041  0.00  0.00     0.071 C 
ATOM     14  H6  <0> d          -2.620   4.007   0.567  0.00  0.00     0.086 H 
ATOM     15  H7  <0> d          -1.215   5.126   0.560  0.00  0.00     0.086 H 
BRANCH  13  16
ATOM     16  O1  <0> d          -2.003   4.662  -1.301  0.00  0.00    -0.393 OA
ATOM     17  H8  <0> d          -2.679   5.510  -1.491  0.00  0.00     0.209 HD
ENDBRANCH  13  16
ENDBRANCH   5  13
TORSDOF 3
