REMARK  6 active torsions:
REMARK  status: ('A' for Active; 'I' for Inactive)
REMARK    1  A    between atoms: C1_1  and  C2_2 
REMARK    2  A    between atoms: C2_2  and  C3_3 
REMARK    3  A    between atoms: C3_3  and  C4_4 
REMARK    4  A    between atoms: C4_4  and  C5_6 
REMARK    5  A    between atoms: C4_4  and  O1_9 
REMARK    6  A    between atoms: C6_7  and  C7_8 
ROOT
ATOM      1  C4  <0> d           2.428   1.010  -0.016  0.00  0.00     0.051 C 
ATOM      2  H1  <0> d           2.243  -0.064  -0.020  0.00  0.00     0.089 H 
ENDROOT
BRANCH   1   3
ATOM      3  C3  <0> d           3.213   1.398  -1.270  0.00  0.00    -0.038 C 
ATOM      4  H7  <0> d           2.601   1.214  -2.153  0.00  0.00     0.037 H 
ATOM      5  H8  <0> d           3.475   2.455  -1.224  0.00  0.00     0.037 H 
BRANCH   3   6
ATOM      6  C2  <0> d           4.491   0.559  -1.352  0.00  0.00    -0.066 C 
ATOM      7  H5  <0> d           5.103   0.744  -0.469  0.00  0.00     0.032 H 
ATOM      8  H6  <0> d           4.229  -0.498  -1.398  0.00  0.00     0.032 H 
BRANCH   6   9
ATOM      9  C1  <0> d           5.276   0.947  -2.606  0.00  0.00    -0.076 C 
ATOM     10  H2  <0> d           4.664   0.763  -3.489  0.00  0.00     0.027 H 
ATOM     11  H3  <0> d           5.537   2.004  -2.559  0.00  0.00     0.027 H 
ATOM     12  H4  <0> d           6.186   0.350  -2.664  0.00  0.00     0.027 H 
ENDBRANCH   6   9
ENDBRANCH   3   6
ENDBRANCH   1   3
BRANCH   1  13
ATOM     13  C5  <0> d           1.113   1.746   0.001  0.00  0.00    -0.080 C 
ATOM     14  C6  <0> d          -0.013   1.076   0.008  0.00  0.00    -0.108 C 
ATOM     15  H10 <0> d           0.002  -0.004   0.002  0.00  0.00     0.075 H 
ATOM     16  H9  <0> d           1.098   2.826   0.007  0.00  0.00     0.080 H 
BRANCH  14  17
ATOM     17  C7  <0> d          -1.328   1.812   0.018  0.00  0.00    -0.060 C 
ATOM     18  H11 <0> d          -2.147   1.092   0.018  0.00  0.00     0.032 H 
ATOM     19  H12 <0> d          -1.390   2.433   0.912  0.00  0.00     0.032 H 
ATOM     20  H13 <0> d          -1.398   2.442  -0.868  0.00  0.00     0.032 H 
ENDBRANCH  14  17
ENDBRANCH   1  13
BRANCH   1  21
ATOM     21  O1  <0> d           3.184   1.360   1.146  0.00  0.00    -0.392 OA
ATOM     22  H14 <0> d           3.385   2.303   1.215  0.00  0.00     0.210 HD
ENDBRANCH   1  21
TORSDOF 6
