REMARK  6 active torsions:
REMARK  status: ('A' for Active; 'I' for Inactive)
REMARK    1  A    between atoms: C1_1  and  C2_2 
REMARK    2  A    between atoms: C2_2  and  C3_3 
REMARK    3  A    between atoms: C3_3  and  C4_5 
REMARK    4  A    between atoms: C3_3  and  C5_6 
REMARK    5  A    between atoms: C5_6  and  C6_7 
REMARK    6  A    between atoms: C6_7  and  C7_8 
ROOT
ATOM      1  C5  <0> d          -1.416  -2.058  -0.121  0.00  0.00    -0.057 C 
ATOM      2  H10 <0> d          -0.856  -2.337  -1.014  0.00  0.00     0.034 H 
ATOM      3  H11 <0> d          -0.941  -2.494   0.757  0.00  0.00     0.034 H 
ENDROOT
BRANCH   1   4
ATOM      4  C3  <0> d          -1.433  -0.534   0.013  0.00  0.00    -0.058 C 
ATOM      5  H1  <0> d          -1.986  -0.102  -0.821  0.00  0.00     0.039 H 
BRANCH   4   6
ATOM      6  C2  <0> d           0.002  -0.004   0.002  0.00  0.00    -0.065 C 
ATOM      7  H5  <0> d           0.512  -0.356  -0.895  0.00  0.00     0.033 H 
ATOM      8  H6  <0> d           0.529  -0.365   0.885  0.00  0.00     0.033 H 
BRANCH   6   9
ATOM      9  C1  <0> d          -0.019   1.526   0.010  0.00  0.00    -0.076 C 
ATOM     10  H2  <0> d           1.004   1.903   0.003  0.00  0.00     0.027 H 
ATOM     11  H3  <0> d          -0.546   1.887  -0.873  0.00  0.00     0.027 H 
ATOM     12  H4  <0> d          -0.529   1.877   0.907  0.00  0.00     0.027 H 
ENDBRANCH   6   9
ENDBRANCH   4   6
BRANCH   4  13
ATOM     13  C4  <0> d          -2.110  -0.145   1.329  0.00  0.00    -0.073 C 
ATOM     14  H7  <0> d          -3.133  -0.522   1.337  0.00  0.00     0.028 H 
ATOM     15  H8  <0> d          -1.557  -0.577   2.163  0.00  0.00     0.028 H 
ATOM     16  H9  <0> d          -2.123   0.941   1.424  0.00  0.00     0.028 H 
ENDBRANCH   4  13
ENDBRANCH   1   4
BRANCH   1  17
ATOM     17  C6  <0> d          -2.850  -2.576  -0.236  0.00  0.00    -0.020 C 
ATOM     18  H12 <0> d          -3.410  -2.296   0.657  0.00  0.00     0.043 H 
ATOM     19  H13 <0> d          -3.326  -2.140  -1.114  0.00  0.00     0.043 H 
BRANCH  17  20
ATOM     20  C7  <0> d          -2.833  -4.077  -0.368  0.00  0.00     0.052 A 
ATOM     21  O1  <0> d          -2.773  -4.764  -1.521  0.00  0.00    -0.327 OA
ATOM     22  C10 <0> d          -2.772  -6.081  -1.258  0.00  0.00     0.019 A 
ATOM     23  C9  <0> d          -2.842  -6.249   0.075  0.00  0.00    -0.059 A 
ATOM     24  H16 <0> d          -2.727  -6.871  -1.992  0.00  0.00     0.123 H 
ATOM     25  C8  <0> d          -2.881  -4.957   0.649  0.00  0.00    -0.052 A 
ATOM     26  H15 <0> d          -2.863  -7.189   0.605  0.00  0.00     0.086 H 
ATOM     27  H14 <0> d          -2.939  -4.722   1.701  0.00  0.00     0.087 H 
ENDBRANCH  17  20
ENDBRANCH   1  17
TORSDOF 6
