REMARK  7 active torsions:
REMARK  status: ('A' for Active; 'I' for Inactive)
REMARK    1  A    between atoms: C1_1  and  C2_2 
REMARK    2  A    between atoms: C2_2  and  C3_3 
REMARK    3  A    between atoms: C3_3  and  O1_4 
REMARK    4  A    between atoms: O1_4  and  C4_5 
REMARK    5  A    between atoms: C4_5  and  C5_7 
REMARK    6  A    between atoms: C5_7  and  C6_8 
REMARK    7  A    between atoms: C5_7  and  C7_9 
ROOT
ATOM      1  C4  <0> d          -0.014   1.204   0.009  0.00  0.00     0.262 C 
ATOM      2  O2  <0> d           0.002  -0.004   0.002  0.00  0.00    -0.265 OA
ENDROOT
BRANCH   1   3
ATOM      3  O1  <0> d          -1.186   1.859   0.018  0.00  0.00    -0.321 OA
BRANCH   3   4
ATOM      4  C3  <0> d          -2.393   1.052   0.019  0.00  0.00     0.029 C 
ATOM      5  H6  <0> d          -2.413   0.428  -0.874  0.00  0.00     0.075 H 
ATOM      6  H7  <0> d          -2.405   0.418   0.906  0.00  0.00     0.075 H 
BRANCH   4   7
ATOM      7  C2  <0> d          -3.619   1.968   0.030  0.00  0.00    -0.048 C 
ATOM      8  H4  <0> d          -3.598   2.592   0.923  0.00  0.00     0.035 H 
ATOM      9  H5  <0> d          -3.606   2.601  -0.857  0.00  0.00     0.035 H 
BRANCH   7  10
ATOM     10  C1  <0> d          -4.890   1.117   0.031  0.00  0.00    -0.075 C 
ATOM     11  H1  <0> d          -4.911   0.493  -0.862  0.00  0.00     0.027 H 
ATOM     12  H2  <0> d          -4.902   0.483   0.918  0.00  0.00     0.027 H 
ATOM     13  H3  <0> d          -5.764   1.769   0.039  0.00  0.00     0.027 H 
ENDBRANCH   7  10
ENDBRANCH   4   7
ENDBRANCH   3   4
ENDBRANCH   1   3
BRANCH   1  14
ATOM     14  C5  <0> d           1.280   1.975   0.000  0.00  0.00     0.023 C 
ATOM     15  H8  <0> d           1.321   2.607  -0.887  0.00  0.00     0.054 H 
BRANCH  14  16
ATOM     16  C6  <0> d           1.361   2.849   1.254  0.00  0.00    -0.065 C 
ATOM     17  H9  <0> d           1.321   2.217   2.141  0.00  0.00     0.028 H 
ATOM     18  H10 <0> d           2.298   3.407   1.248  0.00  0.00     0.028 H 
ATOM     19  H11 <0> d           0.523   3.546   1.265  0.00  0.00     0.028 H 
ENDBRANCH  14  16
BRANCH  14  20
ATOM     20  C7  <0> d           2.457   0.997  -0.016  0.00  0.00    -0.065 C 
ATOM     21  H12 <0> d           2.399   0.374  -0.909  0.00  0.00     0.028 H 
ATOM     22  H13 <0> d           3.393   1.555  -0.022  0.00  0.00     0.028 H 
ATOM     23  H14 <0> d           2.416   0.365   0.871  0.00  0.00     0.028 H 
ENDBRANCH  14  20
ENDBRANCH   1  14
TORSDOF 7
