REMARK  3 active torsions:
REMARK  status: ('A' for Active; 'I' for Inactive)
REMARK    1  A    between atoms: C1_1  and  C2_2 
REMARK    2  A    between atoms: C3_5  and  N3_7 
REMARK       I    between atoms: N3_7  and  C4_8 
REMARK    3  A    between atoms: C4_8  and  C5_10 
ROOT
ATOM      1  C2  <0> d           0.002  -0.004   0.002  0.00  0.00     0.097 A 
ATOM      2  N1  <0> d           0.010  -0.844  -1.014  0.00  0.00    -0.145 NA
ATOM      3  N2  <0> d           0.028  -2.086  -0.784  0.00  0.00    -0.123 NA
ATOM      4  C3  <0> d           0.040  -2.568   0.443  0.00  0.00     0.196 A 
ATOM      5  S1  <0> d           0.031  -1.158   1.367  0.00  0.00    -0.034 SA
ENDROOT
BRANCH   4   6
ATOM      6  N3  <0> d           0.060  -3.893   0.865  0.00  0.00    -0.305 N 
ATOM      7  C4  <0> d           0.071  -4.889  -0.043  0.00  0.00     0.219 C 
ATOM      8  O1  <0> d           0.063  -4.630  -1.227  0.00  0.00    -0.274 OA
ATOM      9  H4  <0> d           0.067  -4.100   1.813  0.00  0.00     0.171 HD
BRANCH   7  10
ATOM     10  C5  <0> d           0.093  -6.325   0.415  0.00  0.00    -0.002 C 
ATOM     11  H5  <0> d           0.098  -6.359   1.504  0.00  0.00     0.040 H 
ATOM     12  H6  <0> d          -0.791  -6.840   0.039  0.00  0.00     0.040 H 
ATOM     13  H7  <0> d           0.989  -6.814   0.032  0.00  0.00     0.040 H 
ENDBRANCH   7  10
ENDBRANCH   4   6
BRANCH   1  14
ATOM     14  C1  <0> d          -0.018   1.503   0.010  0.00  0.00    -0.028 C 
ATOM     15  H1  <0> d           1.004   1.880   0.003  0.00  0.00     0.036 H 
ATOM     16  H2  <0> d          -0.545   1.864  -0.873  0.00  0.00     0.036 H 
ATOM     17  H3  <0> d          -0.529   1.854   0.907  0.00  0.00     0.036 H 
ENDBRANCH   1  14
TORSDOF 3
