REMARK  1 active torsions:
REMARK  status: ('A' for Active; 'I' for Inactive)
REMARK    1  A    between atoms: C3_3  and  O3_8 
ROOT
ATOM      1  C1  <0> d           0.002  -0.004   0.002  0.00  0.00    -0.059 A 
ATOM      2  C2  <0> d          -0.017   1.402   0.010  0.00  0.00    -0.043 A 
ATOM      3  C3  <0> d           1.169   2.080   0.002  0.00  0.00     0.141 A 
ATOM      4  C4  <0> d           2.376   1.346  -0.013  0.00  0.00     0.321 A 
ATOM      5  O1  <0> d           3.446   1.931  -0.020  0.00  0.00    -0.257 OA
ATOM      6  O2  <0> d           2.344   0.003  -0.020  0.00  0.00    -0.286 OA
ATOM      7  C5  <0> d           1.179  -0.662  -0.013  0.00  0.00     0.023 A 
ATOM      8  H1  <0> d          -0.926  -0.557   0.007  0.00  0.00     0.086 H 
ATOM      9  H2  <0> d          -0.955   1.938   0.017  0.00  0.00     0.088 H 
ATOM     10  H3  <0> d           1.184  -1.742  -0.018  0.00  0.00     0.123 H 
ENDROOT
BRANCH   3  11
ATOM     11  O3  <0> d           1.188   3.440   0.009  0.00  0.00    -0.355 OA
ATOM     12  H4  <0> d           1.202   3.828   0.895  0.00  0.00     0.218 HD
ENDBRANCH   3  11
TORSDOF 1
