REMARK  1 active torsions:
REMARK  status: ('A' for Active; 'I' for Inactive)
REMARK    1  A    between atoms: C1_1  and  N1_2 
ROOT
ATOM      1  N1  <0> d           0.002  -0.004   0.002  0.00  0.00    -0.345 N 
ATOM      2  C2  <0> d           0.008  -0.783  -1.124  0.00  0.00    -0.018 A 
ATOM      3  C3  <0> d           0.027  -2.081  -0.782  0.00  0.00    -0.054 A 
ATOM      4  C4  <0> d           0.034  -2.135   0.681  0.00  0.00     0.011 A 
ATOM      5  C5  <0> d           0.024  -0.798   1.123  0.00  0.00     0.139 A 
ATOM      6  N2  <0> d           0.032  -0.533   2.423  0.00  0.00    -0.242 NA
ATOM      7  C6  <0> d           0.054  -1.493   3.324  0.00  0.00     0.004 A 
ATOM      8  C7  <0> d           0.069  -2.830   2.959  0.00  0.00    -0.065 A 
ATOM      9  C8  <0> d           0.052  -3.169   1.619  0.00  0.00    -0.068 A 
ATOM     10  H4  <0> d          -0.002  -0.409  -2.137  0.00  0.00     0.111 H 
ATOM     11  H5  <0> d           0.035  -2.924  -1.457  0.00  0.00     0.087 H 
ATOM     12  H6  <0> d           0.061  -1.232   4.372  0.00  0.00     0.114 H 
ATOM     13  H7  <0> d           0.086  -3.601   3.716  0.00  0.00     0.085 H 
ATOM     14  H8  <0> d           0.065  -4.203   1.306  0.00  0.00     0.085 H 
ENDROOT
BRANCH   1  15
ATOM     15  C1  <0> d          -0.018   1.461   0.010  0.00  0.00    -0.013 C 
ATOM     16  H1  <0> d           1.005   1.838   0.002  0.00  0.00     0.057 H 
ATOM     17  H2  <0> d          -0.545   1.822  -0.873  0.00  0.00     0.057 H 
ATOM     18  H3  <0> d          -0.528   1.812   0.907  0.00  0.00     0.057 H 
ENDBRANCH   1  15
TORSDOF 1
