REMARK  5 active torsions:
REMARK  status: ('A' for Active; 'I' for Inactive)
REMARK    1  A    between atoms: C1_1  and  C2_2 
REMARK    2  A    between atoms: C2_2  and  O1_3 
REMARK    3  A    between atoms: O1_3  and  C3_4 
REMARK    4  A    between atoms: C4_6  and  C7_13 
REMARK    5  A    between atoms: C5_8  and  C6_10 
ROOT
ATOM      1  C3  <0> d           0.484   1.792   1.271  0.00  0.00     0.056 A 
ATOM      2  H1  <0> d           0.091   2.532   1.984  0.00  0.00     0.085 H 
ATOM      3  C4  <0> d          -0.013   1.086   0.008  0.00  0.00    -0.016 A 
ATOM      4  H2  <0> d          -0.350   0.067  -0.232  0.00  0.00     0.044 H 
ATOM      5  C5  <0> d           1.335   1.811  -0.001  0.00  0.00     0.061 A 
ATOM      6  H3  <0> d           1.801   2.591  -0.621  0.00  0.00     0.061 H 
ENDROOT
BRANCH   1   7
ATOM      7  O1  <0> d           0.933   0.973   2.352  0.00  0.00    -0.385 OA
BRANCH   7   8
ATOM      8  C2  <0> d           0.739   1.556   3.643  0.00  0.00     0.017 C 
ATOM      9  H7  <0> d          -0.333   1.746   3.802  0.00  0.00     0.073 H 
ATOM     10  H8  <0> d           1.292   2.504   3.703  0.00  0.00     0.073 H 
BRANCH   8  11
ATOM     11  C1  <0> d           1.252   0.596   4.718  0.00  0.00    -0.056 C 
ATOM     12  H4  <0> d           1.103   1.045   5.711  0.00  0.00     0.030 H 
ATOM     13  H5  <0> d           2.324   0.406   4.559  0.00  0.00     0.030 H 
ATOM     14  H6  <0> d           0.699  -0.353   4.657  0.00  0.00     0.030 H 
ENDBRANCH   8  11
ENDBRANCH   7   8
ENDBRANCH   1   7
BRANCH   5  15
ATOM     15  C6  <0> d           2.581   0.963  -0.018  0.00  0.00     0.180 C 
ATOM     16  O2  <0> d           2.492  -0.242  -0.024  0.00  0.00    -0.648 OA
ATOM     17  O3  <0> d           3.789   1.547  -0.026  0.00  0.00    -0.648 OA
ENDBRANCH   5  15
BRANCH   3  18
ATOM     18  C7  <0> d          -1.169   1.734  -0.756  0.00  0.00    -0.070 C 
ATOM     19  H9  <0> d          -1.418   1.121  -1.635  0.00  0.00     0.028 H 
ATOM     20  H10 <0> d          -0.872   2.741  -1.084  0.00  0.00     0.028 H 
ATOM     21  H11 <0> d          -2.048   1.807  -0.099  0.00  0.00     0.028 H 
ENDBRANCH   3  18
TORSDOF 5
