REMARK  4 active torsions:
REMARK  status: ('A' for Active; 'I' for Inactive)
REMARK    1  A    between atoms: C1_1  and  C2_2 
REMARK    2  A    between atoms: C2_2  and  N1_3 
REMARK    3  A    between atoms: N1_3  and  C3_4 
REMARK    4  A    between atoms: C8_9  and  C9_10 
ROOT
ATOM      1  C3  <0> d           0.832  -1.847  -1.433  0.00  0.00     0.034 A 
ATOM      2  C4  <0> d           0.331  -2.763  -0.517  0.00  0.00    -0.057 A 
ATOM      3  C5  <0> d           0.471  -4.117  -0.749  0.00  0.00    -0.081 A 
ATOM      4  C6  <0> d           1.119  -4.561  -1.888  0.00  0.00    -0.082 A 
ATOM      5  C7  <0> d           1.623  -3.652  -2.799  0.00  0.00    -0.075 A 
ATOM      6  C8  <0> d           1.482  -2.296  -2.575  0.00  0.00    -0.036 A 
ATOM      7  H7  <0> d          -0.171  -2.417   0.375  0.00  0.00     0.086 H 
ATOM      8  H8  <0> d           0.079  -4.829  -0.039  0.00  0.00     0.083 H 
ATOM      9  H9  <0> d           1.231  -5.620  -2.065  0.00  0.00     0.083 H 
ATOM     10  H10 <0> d           2.128  -4.002  -3.687  0.00  0.00     0.084 H 
ENDROOT
BRANCH   1  11
ATOM     11  N1  <0> d           0.688  -0.476  -1.203  0.00  0.00    -0.390 N 
ATOM     12  H6  <0> d           1.042   0.162  -1.842  0.00  0.00     0.159 HD
BRANCH  11  13
ATOM     13  C2  <0> d           0.002  -0.004   0.002  0.00  0.00    -0.011 C 
ATOM     14  H4  <0> d           0.529  -0.365   0.885  0.00  0.00     0.063 H 
ATOM     15  H5  <0> d          -1.020  -0.381   0.010  0.00  0.00     0.063 H 
BRANCH  13  16
ATOM     16  C1  <0> d          -0.019   1.526   0.010  0.00  0.00    -0.061 C 
ATOM     17  H1  <0> d           1.004   1.903   0.003  0.00  0.00     0.029 H 
ATOM     18  H2  <0> d          -0.546   1.887  -0.873  0.00  0.00     0.029 H 
ATOM     19  H3  <0> d          -0.529   1.877   0.907  0.00  0.00     0.029 H 
ENDBRANCH  13  16
ENDBRANCH  11  13
ENDBRANCH   1  11
BRANCH   6  20
ATOM     20  C9  <0> d           2.033  -1.306  -3.569  0.00  0.00    -0.049 C 
ATOM     21  H11 <0> d           3.060  -1.058  -3.303  0.00  0.00     0.033 H 
ATOM     22  H12 <0> d           2.011  -1.743  -4.567  0.00  0.00     0.033 H 
ATOM     23  H13 <0> d           1.425  -0.401  -3.555  0.00  0.00     0.033 H 
ENDBRANCH   6  20
TORSDOF 4
