REMARK  3 active torsions:
REMARK  status: ('A' for Active; 'I' for Inactive)
REMARK    1  A    between atoms: C1_1  and  N1_2 
REMARK    2  A    between atoms: C2_3  and  C5_8 
REMARK    3  A    between atoms: C3_4  and  N3_7 
REMARK       I    between atoms: C5_8  and  N4_10 
ROOT
ATOM      1  N1  <0> d           1.288  -0.373  -0.102  0.00  0.00    -0.267 N 
ATOM      2  C2  <0> d          -0.021   0.025   0.007  0.00  0.00     0.147 A 
ATOM      3  C3  <0> d           0.007   1.411   0.124  0.00  0.00     0.079 A 
ATOM      4  C4  <0> d           1.368   1.756   0.076  0.00  0.00     0.049 A 
ATOM      5  N2  <0> d           2.057   0.654  -0.058  0.00  0.00    -0.182 NA
ATOM      6  H4  <0> d           1.773   2.755   0.138  0.00  0.00     0.121 H 
ENDROOT
BRANCH   2   7
ATOM      7  C5  <0> d          -1.207  -0.835   0.002  0.00  0.00     0.270 C 
ATOM      8  O1  <0> d          -1.687  -1.218   1.053  0.00  0.00    -0.266 OA
ATOM      9  N4  <0> d          -1.767  -1.203  -1.168  0.00  0.00    -0.365 N 
ATOM     10  H7  <0> d          -1.344  -0.960  -2.006  0.00  0.00     0.159 HD
ATOM     11  H8  <0> d          -2.593  -1.712  -1.171  0.00  0.00     0.159 HD
ENDBRANCH   2   7
BRANCH   1  12
ATOM     12  C1  <0> d           1.740  -1.760  -0.247  0.00  0.00     0.003 C 
ATOM     13  H1  <0> d           1.872  -1.990  -1.304  0.00  0.00     0.059 H 
ATOM     14  H2  <0> d           2.688  -1.889   0.275  0.00  0.00     0.059 H 
ATOM     15  H3  <0> d           0.995  -2.431   0.181  0.00  0.00     0.059 H 
ENDBRANCH   1  12
BRANCH   3  16
ATOM     16  N3  <0> d          -1.081   2.273   0.255  0.00  0.00    -0.396 N 
ATOM     17  H5  <0> d          -1.982   1.916   0.272  0.00  0.00     0.156 HD
ATOM     18  H6  <0> d          -0.936   3.229   0.329  0.00  0.00     0.156 HD
ENDBRANCH   3  16
TORSDOF 3
