REMARK  3 active torsions:
REMARK  status: ('A' for Active; 'I' for Inactive)
REMARK    1  A    between atoms: C1_1  and  C2_2 
REMARK    2  A    between atoms: C3_3  and  C8_10 
REMARK    3  A    between atoms: C7_7  and  O1_8 
ROOT
ATOM      1  C2  <0> d           0.001   1.805   2.405  0.00  0.00    -0.020 A 
ATOM      2  C3  <0> d          -0.718   1.572   1.248  0.00  0.00    -0.015 A 
ATOM      3  C4  <0> d          -2.085   1.789   1.226  0.00  0.00     0.122 A 
ATOM      4  C5  <0> d          -2.736   2.231   2.366  0.00  0.00    -0.043 A 
ATOM      5  C6  <0> d          -2.019   2.465   3.523  0.00  0.00    -0.048 A 
ATOM      6  C7  <0> d          -0.649   2.253   3.545  0.00  0.00     0.072 A 
ATOM      7  F1  <0> d          -2.786   1.566   0.092  0.00  0.00    -0.206 F 
ATOM      8  H4  <0> d          -3.803   2.396   2.349  0.00  0.00     0.088 H 
ATOM      9  H5  <0> d          -2.526   2.813   4.411  0.00  0.00     0.087 H 
ENDROOT
BRANCH   1  10
ATOM     10  C1  <0> d           1.490   1.575   2.426  0.00  0.00    -0.048 C 
ATOM     11  H1  <0> d           2.004   2.492   2.139  0.00  0.00     0.033 H 
ATOM     12  H2  <0> d           1.798   1.285   3.431  0.00  0.00     0.033 H 
ATOM     13  H3  <0> d           1.745   0.780   1.725  0.00  0.00     0.033 H 
ENDBRANCH   1  10
BRANCH   6  14
ATOM     14  O1  <0> d           0.057   2.482   4.684  0.00  0.00    -0.360 OA
ATOM     15  H6  <0> d           0.395   3.385   4.762  0.00  0.00     0.217 HD
ENDBRANCH   6  14
BRANCH   2  16
ATOM     16  C8  <0> d          -0.013   1.086   0.008  0.00  0.00    -0.048 C 
ATOM     17  H7  <0> d           0.002  -0.004   0.002  0.00  0.00     0.033 H 
ATOM     18  H8  <0> d           1.010   1.463   0.000  0.00  0.00     0.033 H 
ATOM     19  H9  <0> d          -0.540   1.447  -0.875  0.00  0.00     0.033 H 
ENDBRANCH   2  16
TORSDOF 3
