REMARK  0 active torsions:
REMARK  status: ('A' for Active; 'I' for Inactive)
ROOT
ATOM      1  C1  <0> d          -0.019   1.587   0.011  0.00  0.00    -0.050 C 
ATOM      2  C2  <0> d           1.557   1.680  -0.004  0.00  0.00    -0.024 C 
ATOM      3  H1  <0> d           1.996   2.678   0.018  0.00  0.00     0.047 H 
ATOM      4  C3  <0> d           1.791   0.805  -1.276  0.00  0.00    -0.101 C 
ATOM      5  C4  <0> d           0.928  -0.190  -1.185  0.00  0.00    -0.100 C 
ATOM      6  C5  <0> d           0.002  -0.004   0.002  0.00  0.00    -0.017 C 
ATOM      7  H2  <0> d          -0.960  -0.512  -0.071  0.00  0.00     0.049 H 
ATOM      8  C6  <0> d           0.730  -0.123   1.351  0.00  0.00     0.031 C 
ATOM      9  H3  <0> d           0.160   0.266   2.195  0.00  0.00     0.074 H 
ATOM     10  C7  <0> d           2.041   0.701   1.018  0.00  0.00     0.050 C 
ATOM     11  H4  <0> d           2.801   0.200   0.419  0.00  0.00     0.059 H 
ATOM     12  C8  <0> d           2.273   0.079   2.255  0.00  0.00     0.224 C 
ATOM     13  O1  <0> d           2.756   0.415   3.316  0.00  0.00    -0.273 OA
ATOM     14  N1  <0> d           1.704  -1.127   1.699  0.00  0.00    -0.355 N 
ATOM     15  H5  <0> d          -0.456   1.996   0.922  0.00  0.00     0.035 H 
ATOM     16  H6  <0> d          -0.473   2.005  -0.888  0.00  0.00     0.035 H 
ATOM     17  H7  <0> d           2.508   0.977  -2.066  0.00  0.00     0.077 H 
ATOM     18  H8  <0> d           0.887  -1.027  -1.866  0.00  0.00     0.077 H 
ATOM     19  H9  <0> d           1.868  -2.079   1.615  0.00  0.00     0.162 HD
ENDROOT
TORSDOF 0
