REMARK  8 active torsions:
REMARK  status: ('A' for Active; 'I' for Inactive)
REMARK    1  A    between atoms: C1_1  and  C2_2 
REMARK    2  A    between atoms: C2_2  and  C3_3 
REMARK    3  A    between atoms: C2_2  and  C4_4 
REMARK    4  A    between atoms: C4_4  and  C5_5 
REMARK    5  A    between atoms: C5_5  and  C6_7 
REMARK    6  A    between atoms: C5_5  and  O1_10 
REMARK    7  A    between atoms: C6_7  and  C7_8 
REMARK    8  A    between atoms: C6_7  and  C8_9 
ROOT
ATOM      1  C5  <0> d          -2.156   1.505   1.293  0.00  0.00     0.038 C 
ATOM      2  H1  <0> d          -2.635   1.715   0.337  0.00  0.00     0.083 H 
ENDROOT
BRANCH   1   3
ATOM      3  C4  <0> d          -0.716   2.023   1.267  0.00  0.00    -0.038 C 
ATOM      4  H9  <0> d          -0.220   1.763   2.202  0.00  0.00     0.037 H 
ATOM      5  H10 <0> d          -0.722   3.106   1.147  0.00  0.00     0.037 H 
BRANCH   3   6
ATOM      6  C2  <0> d           0.034   1.384   0.096  0.00  0.00    -0.059 C 
ATOM      7  H5  <0> d          -0.048   0.299   0.161  0.00  0.00     0.039 H 
BRANCH   6   8
ATOM      8  C1  <0> d           1.509   1.789   0.154  0.00  0.00    -0.073 C 
ATOM      9  H2  <0> d           1.919   1.526   1.129  0.00  0.00     0.028 H 
ATOM     10  H3  <0> d           2.060   1.265  -0.626  0.00  0.00     0.028 H 
ATOM     11  H4  <0> d           1.596   2.864   0.002  0.00  0.00     0.028 H 
ENDBRANCH   6   8
BRANCH   6  12
ATOM     12  C3  <0> d          -0.575   1.864  -1.223  0.00  0.00    -0.073 C 
ATOM     13  H6  <0> d          -0.040   1.409  -2.057  0.00  0.00     0.028 H 
ATOM     14  H7  <0> d          -1.625   1.575  -1.264  0.00  0.00     0.028 H 
ATOM     15  H8  <0> d          -0.493   2.949  -1.287  0.00  0.00     0.028 H 
ENDBRANCH   6  12
ENDBRANCH   3   6
ENDBRANCH   1   3
BRANCH   1  16
ATOM     16  C6  <0> d          -2.928   2.201   2.415  0.00  0.00    -0.036 C 
ATOM     17  H11 <0> d          -2.449   1.991   3.371  0.00  0.00     0.042 H 
BRANCH  16  18
ATOM     18  C7  <0> d          -2.934   3.711   2.169  0.00  0.00    -0.071 C 
ATOM     19  H12 <0> d          -3.484   4.208   2.968  0.00  0.00     0.028 H 
ATOM     20  H13 <0> d          -1.909   4.080   2.150  0.00  0.00     0.028 H 
ATOM     21  H14 <0> d          -3.413   3.922   1.213  0.00  0.00     0.028 H 
ENDBRANCH  16  18
BRANCH  16  22
ATOM     22  C8  <0> d          -4.367   1.683   2.441  0.00  0.00    -0.071 C 
ATOM     23  H15 <0> d          -4.363   0.607   2.617  0.00  0.00     0.028 H 
ATOM     24  H16 <0> d          -4.918   2.179   3.240  0.00  0.00     0.028 H 
ATOM     25  H17 <0> d          -4.847   1.893   1.485  0.00  0.00     0.028 H 
ENDBRANCH  16  22
ENDBRANCH   1  16
BRANCH   1  26
ATOM     26  O1  <0> d          -2.150   0.094   1.523  0.00  0.00    -0.395 OA
ATOM     27  H18 <0> d          -1.738  -0.167   2.358  0.00  0.00     0.210 HD
ENDBRANCH   1  26
TORSDOF 8
