REMARK  4 active torsions:
REMARK  status: ('A' for Active; 'I' for Inactive)
REMARK    1  A    between atoms: C1_1  and  C2_2 
REMARK    2  A    between atoms: C5_5  and  C8_8 
REMARK    3  A    between atoms: C8_8  and  C9_9 
REMARK    4  A    between atoms: C8_8  and  C10_10 
ROOT
ATOM      1  C8  <0> d           0.059  -4.275  -0.021  0.00  0.00     0.069 C 
ATOM      2  C11 <0> d           1.264  -4.747  -0.725  0.00  0.00     0.073 C 
ATOM      3  N1  <0> d           2.193  -5.110  -1.267  0.00  0.00    -0.196 NA
ENDROOT
BRANCH   1   4
ATOM      4  C5  <0> d           0.040  -2.768  -0.013  0.00  0.00    -0.036 A 
ATOM      5  C4  <0> d           0.025  -2.071  -1.206  0.00  0.00    -0.075 A 
ATOM      6  C3  <0> d           0.006  -0.689  -1.199  0.00  0.00    -0.077 A 
ATOM      7  H5  <0> d           0.027  -2.606  -2.145  0.00  0.00     0.084 H 
ATOM      8  C2  <0> d           0.002  -0.004   0.002  0.00  0.00    -0.062 A 
ATOM      9  H4  <0> d          -0.006  -0.144  -2.131  0.00  0.00     0.084 H 
ATOM     10  C7  <0> d           0.023  -0.702   1.195  0.00  0.00    -0.077 A 
ATOM     11  C6  <0> d           0.037  -2.084   1.188  0.00  0.00    -0.075 A 
ATOM     12  H7  <0> d           0.025  -0.167   2.134  0.00  0.00     0.084 H 
ATOM     13  H6  <0> d           0.049  -2.629   2.120  0.00  0.00     0.084 H 
BRANCH   8  14
ATOM     14  C1  <0> d          -0.018   1.503   0.010  0.00  0.00    -0.051 C 
ATOM     15  H1  <0> d           1.004   1.880   0.003  0.00  0.00     0.033 H 
ATOM     16  H2  <0> d          -0.545   1.864  -0.873  0.00  0.00     0.033 H 
ATOM     17  H3  <0> d          -0.529   1.854   0.907  0.00  0.00     0.033 H 
ENDBRANCH   8  14
ENDBRANCH   1   4
BRANCH   1  18
ATOM     18  C9  <0> d           0.074  -4.793   1.418  0.00  0.00    -0.053 C 
ATOM     19  H8  <0> d          -0.818  -4.444   1.939  0.00  0.00     0.030 H 
ATOM     20  H9  <0> d           0.088  -5.883   1.412  0.00  0.00     0.030 H 
ATOM     21  H10 <0> d           0.962  -4.421   1.929  0.00  0.00     0.030 H 
ENDBRANCH   1  18
BRANCH   1  22
ATOM     22  C10 <0> d          -1.187  -4.798  -0.739  0.00  0.00    -0.053 C 
ATOM     23  H11 <0> d          -1.198  -4.429  -1.764  0.00  0.00     0.030 H 
ATOM     24  H12 <0> d          -1.173  -5.887  -0.745  0.00  0.00     0.030 H 
ATOM     25  H13 <0> d          -2.079  -4.449  -0.218  0.00  0.00     0.030 H 
ENDBRANCH   1  22
TORSDOF 4
