REMARK  4 active torsions:
REMARK  status: ('A' for Active; 'I' for Inactive)
REMARK    1  A    between atoms: C1_1  and  C2_2 
REMARK    2  A    between atoms: C2_2  and  C7_8 
REMARK    3  A    between atoms: C4_4  and  C5_5 
REMARK    4  A    between atoms: C4_4  and  C6_6 
ROOT
ATOM      1  C2  <0> d           1.362  -0.691  -0.133  0.00  0.00     0.063 A 
ATOM      2  C3  <0> d           0.659  -0.752   1.224  0.00  0.00    -0.030 A 
ATOM      3  C4  <0> d           0.008  -0.005   0.058  0.00  0.00     0.063 A 
ATOM      4  H4  <0> d           1.077  -0.154   2.034  0.00  0.00     0.036 H 
ATOM      5  H5  <0> d           0.219  -1.704   1.521  0.00  0.00     0.036 H 
ENDROOT
BRANCH   1   6
ATOM      6  C1  <0> d           1.393  -1.972  -0.971  0.00  0.00    -0.058 C 
ATOM      7  H1  <0> d           1.034  -1.756  -1.977  0.00  0.00     0.029 H 
ATOM      8  H2  <0> d           2.415  -2.348  -1.022  0.00  0.00     0.029 H 
ATOM      9  H3  <0> d           0.752  -2.723  -0.509  0.00  0.00     0.029 H 
ENDBRANCH   1   6
BRANCH   1  10
ATOM     10  C7  <0> d           2.579   0.190  -0.248  0.00  0.00     0.182 C 
ATOM     11  O2  <0> d           3.499   0.053   0.523  0.00  0.00    -0.647 OA
ATOM     12  O4  <0> d           2.641   1.128  -1.207  0.00  0.00    -0.647 OA
ENDBRANCH   1  10
BRANCH   3  13
ATOM     13  C5  <0> d          -1.211  -0.652  -0.602  0.00  0.00    -0.058 C 
ATOM     14  H6  <0> d          -1.062  -0.693  -1.680  0.00  0.00     0.029 H 
ATOM     15  H7  <0> d          -1.341  -1.662  -0.214  0.00  0.00     0.029 H 
ATOM     16  H8  <0> d          -2.100  -0.060  -0.380  0.00  0.00     0.029 H 
ENDBRANCH   3  13
BRANCH   3  17
ATOM     17  C6  <0> d          -0.006   1.500   0.118  0.00  0.00     0.182 C 
ATOM     18  O1  <0> d           0.387   2.070   1.108  0.00  0.00    -0.647 OA
ATOM     19  O3  <0> d          -0.452   2.209  -0.931  0.00  0.00    -0.647 OA
ENDBRANCH   3  17
TORSDOF 4
