REMARK  2 active torsions:
REMARK  status: ('A' for Active; 'I' for Inactive)
REMARK    1  A    between atoms: C1_1  and  C2_2 
REMARK    2  A    between atoms: C4_4  and  N2_9 
ROOT
ATOM      1  C2  <0> d           1.171   1.793   0.001  0.00  0.00    -0.018 A 
ATOM      2  C3  <0> d          -0.013   1.076   0.008  0.00  0.00    -0.030 A 
ATOM      3  C4  <0> d          -1.221   1.764   0.017  0.00  0.00     0.121 A 
ATOM      4  N1  <0> d          -1.244   3.088   0.030  0.00  0.00    -0.241 NA
ATOM      5  C5  <0> d          -0.132   3.799   0.024  0.00  0.00     0.042 A 
ATOM      6  C6  <0> d           1.104   3.181   0.009  0.00  0.00     0.140 A 
ATOM      7  F1  <0> d           2.236   3.919   0.001  0.00  0.00    -0.204 F 
ATOM      8  H4  <0> d           0.002  -0.004   0.002  0.00  0.00     0.090 H 
ATOM      9  H5  <0> d          -0.190   4.878   0.030  0.00  0.00     0.119 H 
ENDROOT
BRANCH   1  10
ATOM     10  C1  <0> d           2.501   1.085  -0.016  0.00  0.00    -0.048 C 
ATOM     11  H1  <0> d           2.337  -0.003  -0.020  0.00  0.00     0.033 H 
ATOM     12  H2  <0> d           3.076   1.365   0.879  0.00  0.00     0.033 H 
ATOM     13  H3  <0> d           3.060   1.375  -0.917  0.00  0.00     0.033 H 
ENDBRANCH   1  10
BRANCH   3  14
ATOM     14  N2  <0> d          -2.418   1.054   0.019  0.00  0.00    -0.384 N 
ATOM     15  H6  <0> d          -3.377   1.593   0.026  0.00  0.00     0.157 HD
ATOM     16  H7  <0> d          -2.405  -0.046   0.013  0.00  0.00     0.157 HD
ENDBRANCH   3  14
TORSDOF 2
