REMARK  1 active torsions:
REMARK  status: ('A' for Active; 'I' for Inactive)
REMARK    1  A    between atoms: C3_4  and  N3_8 
ROOT
ATOM      1  C1  <0> d          -0.016   1.360   0.009  0.00  0.00     0.001 A 
ATOM      2  C2  <0> d           0.002  -0.004   0.002  0.00  0.00     0.026 A 
ATOM      3  N1  <0> d           1.163  -0.656  -0.013  0.00  0.00    -0.077 NA
ATOM      4  C3  <0> d           2.312  -0.011  -0.020  0.00  0.00     0.700 A 
ATOM      5  N2  <0> d           2.355   1.349  -0.013  0.00  0.00    -0.155 N 
ATOM      6  C4  <0> d           1.205   2.057   0.002  0.00  0.00     0.260 A 
ATOM      7  O1  <0> d           1.226   3.276   0.008  0.00  0.00    -0.268 OA
ATOM      8  H1  <0> d          -0.954   1.897   0.017  0.00  0.00     0.094 H 
ATOM      9  H2  <0> d          -0.926  -0.556   0.008  0.00  0.00     0.116 H 
ATOM     10  H3  <0> d           3.209   1.809  -0.018  0.00  0.00     0.187 HD
ENDROOT
BRANCH   4  11
ATOM     11  N3  <0> d           3.482  -0.721  -0.035  0.00  0.00    -0.233 N 
ATOM     12  H4  <0> d           3.461  -1.691  -0.040  0.00  0.00     0.174 HD
ATOM     13  H5  <0> d           4.332  -0.254  -0.041  0.00  0.00     0.174 HD
ENDBRANCH   4  11
TORSDOF 1
