REMARK  2 active torsions:
REMARK  status: ('A' for Active; 'I' for Inactive)
REMARK    1  A    between atoms: C1_1  and  C2_2 
REMARK    2  A    between atoms: C4_4  and  N3_12 
ROOT
ATOM      1  C2  <0> d           0.002  -0.004   0.002  0.00  0.00     0.035 A 
ATOM      2  C3  <0> d           0.005  -0.670  -1.215  0.00  0.00    -0.033 A 
ATOM      3  C4  <0> d           0.024  -2.057  -1.236  0.00  0.00     0.041 A 
ATOM      4  C5  <0> d           0.039  -2.737   0.005  0.00  0.00     0.038 A 
ATOM      5  C6  <0> d           0.059  -4.138   0.073  0.00  0.00    -0.066 A 
ATOM      6  C7  <0> d           0.074  -4.724   1.310  0.00  0.00    -0.065 A 
ATOM      7  C8  <0> d           0.068  -3.928   2.451  0.00  0.00     0.005 A 
ATOM      8  N1  <0> d           0.049  -2.618   2.381  0.00  0.00    -0.241 NA
ATOM      9  C9  <0> d           0.035  -1.984   1.204  0.00  0.00     0.161 A 
ATOM     10  N2  <0> d           0.022  -0.647   1.147  0.00  0.00    -0.233 NA
ATOM     11  H4  <0> d          -0.007  -0.113  -2.140  0.00  0.00     0.090 H 
ATOM     12  H5  <0> d           0.063  -4.737  -0.825  0.00  0.00     0.085 H 
ATOM     13  H6  <0> d           0.089  -5.800   1.399  0.00  0.00     0.085 H 
ATOM     14  H7  <0> d           0.079  -4.402   3.421  0.00  0.00     0.114 H 
ENDROOT
BRANCH   1  15
ATOM     15  C1  <0> d          -0.018   1.503   0.010  0.00  0.00    -0.035 C 
ATOM     16  H1  <0> d           1.004   1.880   0.003  0.00  0.00     0.035 H 
ATOM     17  H2  <0> d          -0.545   1.864  -0.873  0.00  0.00     0.035 H 
ATOM     18  H3  <0> d          -0.529   1.854   0.907  0.00  0.00     0.035 H 
ENDBRANCH   1  15
BRANCH   3  19
ATOM     19  N3  <0> d           0.027  -2.755  -2.433  0.00  0.00    -0.398 N 
ATOM     20  H8  <0> d           0.016  -2.273  -3.275  0.00  0.00     0.156 HD
ATOM     21  H9  <0> d           0.041  -3.724  -2.429  0.00  0.00     0.156 HD
ENDBRANCH   3  19
TORSDOF 2
