REMARK  1 active torsions:
REMARK  status: ('A' for Active; 'I' for Inactive)
REMARK    1  A    between atoms: C5_7  and  C7_9 
ROOT
ATOM      1  C1  <0> d          -0.018   1.437   0.010  0.00  0.00     0.043 C 
ATOM      2  C2  <0> d           1.469   1.859  -0.002  0.00  0.00     0.043 C 
ATOM      3  O1  <0> d           2.147   0.683   0.507  0.00  0.00    -0.353 OA
ATOM      4  C3  <0> d           1.375  -0.399  -0.035  0.00  0.00     0.165 C 
ATOM      5  O2  <0> d           0.002  -0.004   0.002  0.00  0.00    -0.353 OA
ATOM      6  C4  <0> d           1.681  -1.776   0.561  0.00  0.00    -0.000 C 
ATOM      7  C5  <0> d           2.706  -1.946  -0.574  0.00  0.00     0.040 C 
ATOM      8  C6  <0> d           1.869  -0.937  -1.380  0.00  0.00    -0.000 C 
ATOM      9  H1  <0> d          -0.508   1.804   0.911  0.00  0.00     0.077 H 
ATOM     10  H2  <0> d          -0.525   1.813  -0.878  0.00  0.00     0.077 H 
ATOM     11  H3  <0> d           1.797   2.084  -1.017  0.00  0.00     0.077 H 
ATOM     12  H4  <0> d           1.632   2.713   0.655  0.00  0.00     0.077 H 
ATOM     13  H5  <0> d           2.130  -1.733   1.553  0.00  0.00     0.042 H 
ATOM     14  H6  <0> d           0.844  -2.472   0.503  0.00  0.00     0.042 H 
ATOM     15  H7  <0> d           3.702  -1.583  -0.321  0.00  0.00     0.057 H 
ATOM     16  H8  <0> d           1.085  -1.400  -1.980  0.00  0.00     0.042 H 
ATOM     17  H9  <0> d           2.469  -0.223  -1.944  0.00  0.00     0.042 H 
ENDROOT
BRANCH   7  18
ATOM     18  C7  <0> d           2.721  -3.330  -1.171  0.00  0.00     0.177 C 
ATOM     19  O3  <0> d           3.023  -3.486  -2.341  0.00  0.00    -0.648 OA
ATOM     20  O4  <0> d           2.431  -4.294  -0.482  0.00  0.00    -0.648 OA
ENDBRANCH   7  18
TORSDOF 1
