REMARK  4 active torsions:
REMARK  status: ('A' for Active; 'I' for Inactive)
REMARK    1  A    between atoms: C1_1  and  C2_2 
REMARK    2  A    between atoms: C2_2  and  C3_3 
REMARK    3  A    between atoms: C2_2  and  C4_4 
REMARK    4  A    between atoms: C9_9  and  C10_10 
ROOT
ATOM      1  C10 <0> d          -0.997  -1.659  -2.119  0.00  0.00    -0.077 C 
ATOM      2  C11 <0> d          -0.281  -1.931  -3.010  0.00  0.00    -0.149 C 
ATOM      3  H12 <0> d           0.358  -2.174  -3.807  0.00  0.00     0.166 H 
ENDROOT
BRANCH   1   4
ATOM      4  C9  <0> d          -1.869  -1.328  -1.033  0.00  0.00     0.023 A 
ATOM      5  C4  <0> d          -1.412  -0.526   0.013  0.00  0.00    -0.036 A 
ATOM      6  C5  <0> d          -2.259  -0.206   1.054  0.00  0.00    -0.075 A 
ATOM      7  C6  <0> d          -3.557  -0.684   1.065  0.00  0.00    -0.082 A 
ATOM      8  H8  <0> d          -1.908   0.419   1.862  0.00  0.00     0.084 H 
ATOM      9  C7  <0> d          -4.015  -1.484   0.034  0.00  0.00    -0.082 A 
ATOM     10  H9  <0> d          -4.216  -0.431   1.883  0.00  0.00     0.083 H 
ATOM     11  C8  <0> d          -3.178  -1.812  -1.013  0.00  0.00    -0.064 A 
ATOM     12  H10 <0> d          -5.029  -1.855   0.049  0.00  0.00     0.083 H 
ATOM     13  H11 <0> d          -3.536  -2.438  -1.817  0.00  0.00     0.085 H 
BRANCH   5  14
ATOM     14  C2  <0> d           0.002  -0.004   0.002  0.00  0.00    -0.034 C 
ATOM     15  H4  <0> d           0.512  -0.356  -0.895  0.00  0.00     0.046 H 
BRANCH  14  16
ATOM     16  C1  <0> d          -0.019   1.526   0.010  0.00  0.00    -0.069 C 
ATOM     17  H1  <0> d           1.004   1.903   0.003  0.00  0.00     0.028 H 
ATOM     18  H2  <0> d          -0.546   1.887  -0.873  0.00  0.00     0.028 H 
ATOM     19  H3  <0> d          -0.529   1.877   0.907  0.00  0.00     0.028 H 
ENDBRANCH  14  16
BRANCH  14  20
ATOM     20  C3  <0> d           0.742  -0.511   1.242  0.00  0.00    -0.069 C 
ATOM     21  H5  <0> d           0.232  -0.159   2.138  0.00  0.00     0.028 H 
ATOM     22  H6  <0> d           0.757  -1.601   1.236  0.00  0.00     0.028 H 
ATOM     23  H7  <0> d           1.765  -0.134   1.234  0.00  0.00     0.028 H 
ENDBRANCH  14  20
ENDBRANCH   5  14
ENDBRANCH   1   4
TORSDOF 4
