REMARK  6 active torsions:
REMARK  status: ('A' for Active; 'I' for Inactive)
REMARK    1  A    between atoms: C1_1  and  C2_2 
REMARK    2  A    between atoms: C2_2  and  C3_3 
REMARK    3  A    between atoms: C2_2  and  O1_4 
REMARK    4  A    between atoms: O1_4  and  C4_5 
REMARK    5  A    between atoms: C4_5  and  C5_6 
REMARK    6  A    between atoms: C5_6  and  O2_7 
ROOT
ATOM      1  C2  <0> d           0.367   4.914   1.348  0.00  0.00     0.031 C 
ATOM      2  H4  <0> d           1.147   5.424   0.783  0.00  0.00     0.082 H 
ENDROOT
BRANCH   1   3
ATOM      3  C1  <0> d          -1.004   5.300   0.790  0.00  0.00    -0.052 C 
ATOM      4  H1  <0> d          -1.783   4.790   1.356  0.00  0.00     0.030 H 
ATOM      5  H2  <0> d          -1.140   6.379   0.875  0.00  0.00     0.030 H 
ATOM      6  H3  <0> d          -1.065   5.008  -0.258  0.00  0.00     0.030 H 
ENDBRANCH   1   3
BRANCH   1   7
ATOM      7  C3  <0> d           0.453   5.324   2.820  0.00  0.00    -0.052 C 
ATOM      8  H5  <0> d           1.430   5.048   3.217  0.00  0.00     0.030 H 
ATOM      9  H6  <0> d           0.317   6.402   2.905  0.00  0.00     0.030 H 
ATOM     10  H7  <0> d          -0.326   4.814   3.385  0.00  0.00     0.030 H 
ENDBRANCH   1   7
BRANCH   1  11
ATOM     11  O1  <0> d           0.546   3.500   1.237  0.00  0.00    -0.385 OA
BRANCH  11  12
ATOM     12  C4  <0> d           1.145   3.085   0.008  0.00  0.00     0.039 C 
ATOM     13  H8  <0> d           2.130   3.542  -0.089  0.00  0.00     0.077 H 
ATOM     14  H9  <0> d           0.516   3.397  -0.827  0.00  0.00     0.077 H 
BRANCH  12  15
ATOM     15  C5  <0> d           1.286   1.562  -0.002  0.00  0.00     0.036 C 
ATOM     16  H10 <0> d           1.840   1.243   0.881  0.00  0.00     0.077 H 
ATOM     17  H11 <0> d           1.823   1.252  -0.899  0.00  0.00     0.077 H 
BRANCH  15  18
ATOM     18  O2  <0> d          -0.011   0.963   0.007  0.00  0.00    -0.399 OA
ATOM     19  H12 <0> d           0.002  -0.004   0.002  0.00  0.00     0.209 HD
ENDBRANCH  15  18
ENDBRANCH  12  15
ENDBRANCH  11  12
ENDBRANCH   1  11
TORSDOF 6
