REMARK  1 active torsions:
REMARK  status: ('A' for Active; 'I' for Inactive)
REMARK    1  A    between atoms: C1_1  and  C2_2 
ROOT
ATOM      1  C2  <0> d          -0.742   1.585  -1.213  0.00  0.00    -0.033 A 
ATOM      2  C3  <0> d          -0.056   1.824  -2.370  0.00  0.00    -0.075 A 
ATOM      3  C4  <0> d          -0.712   2.284  -3.505  0.00  0.00    -0.082 A 
ATOM      4  C5  <0> d          -2.058   2.508  -3.486  0.00  0.00    -0.069 A 
ATOM      5  C6  <0> d          -2.783   2.271  -2.313  0.00  0.00     0.012 A 
ATOM      6  C7  <0> d          -2.117   1.799  -1.166  0.00  0.00     0.067 A 
ATOM      7  N1  <0> d          -3.067   1.654  -0.189  0.00  0.00    -0.277 N 
ATOM      8  N2  <0> d          -4.314   2.021  -0.707  0.00  0.00    -0.186 NA
ATOM      9  H1  <0> d          -2.902   1.346   0.716  0.00  0.00     0.189 HD
ATOM     10  C8  <0> d          -4.190   2.398  -1.947  0.00  0.00     0.034 A 
ATOM     11  H5  <0> d           1.010   1.653  -2.403  0.00  0.00     0.084 H 
ATOM     12  H6  <0> d          -0.151   2.467  -4.410  0.00  0.00     0.083 H 
ATOM     13  H7  <0> d          -2.561   2.866  -4.372  0.00  0.00     0.085 H 
ATOM     14  H8  <0> d          -4.988   2.733  -2.593  0.00  0.00     0.118 H 
ENDROOT
BRANCH   1  15
ATOM     15  C1  <0> d          -0.013   1.086   0.008  0.00  0.00    -0.049 C 
ATOM     16  H2  <0> d           0.002  -0.004   0.002  0.00  0.00     0.033 H 
ATOM     17  H3  <0> d           1.010   1.463   0.000  0.00  0.00     0.033 H 
ATOM     18  H4  <0> d          -0.523   1.437   0.905  0.00  0.00     0.033 H 
ENDBRANCH   1  15
TORSDOF 1
