REMARK  2 active torsions:
REMARK  status: ('A' for Active; 'I' for Inactive)
REMARK    1  A    between atoms: C3_3  and  C8_9 
REMARK    2  A    between atoms: N1_4  and  C5_6 
ROOT
ATOM      1  C1  <0> d          -0.016   1.352   0.009  0.00  0.00    -0.066 A 
ATOM      2  C2  <0> d           1.307   1.798  -0.001  0.00  0.00    -0.049 A 
ATOM      3  C3  <0> d           2.111   0.675  -0.015  0.00  0.00     0.112 A 
ATOM      4  N1  <0> d           1.283  -0.426  -0.013  0.00  0.00    -0.347 N 
ATOM      5  C4  <0> d           0.002  -0.004   0.002  0.00  0.00    -0.019 A 
ATOM      6  H1  <0> d          -0.898   1.975   0.025  0.00  0.00     0.085 H 
ATOM      7  H2  <0> d           1.638   2.826   0.002  0.00  0.00     0.087 H 
ATOM      8  H3  <0> d          -0.869  -0.643   0.007  0.00  0.00     0.111 H 
ENDROOT
BRANCH   4   9
ATOM      9  C5  <0> d           1.720  -1.824  -0.024  0.00  0.00     0.017 A 
ATOM     10  C7  <0> d           1.295  -2.708   1.151  0.00  0.00    -0.044 A 
ATOM     11  C6  <0> d           0.649  -2.898  -0.223  0.00  0.00    -0.044 A 
ATOM     12  H7  <0> d           1.998  -3.470   1.487  0.00  0.00     0.036 H 
ATOM     13  H8  <0> d           0.690  -2.249   1.932  0.00  0.00     0.036 H 
ATOM     14  H5  <0> d          -0.381  -2.565  -0.345  0.00  0.00     0.036 H 
ATOM     15  H6  <0> d           0.926  -3.787  -0.791  0.00  0.00     0.036 H 
ATOM     16  H4  <0> d           2.703  -2.006  -0.461  0.00  0.00     0.073 H 
ENDBRANCH   4   9
BRANCH   3  17
ATOM     17  C8  <0> d           3.573   0.657  -0.029  0.00  0.00     0.227 C 
ATOM     18  O1  <0> d           4.198   1.711  -0.029  0.00  0.00    -0.643 OA
ATOM     19  O2  <0> d           4.172  -0.411  -0.041  0.00  0.00    -0.643 OA
ENDBRANCH   3  17
TORSDOF 2
