REMARK  2 active torsions:
REMARK  status: ('A' for Active; 'I' for Inactive)
REMARK    1  A    between atoms: C1_1  and  C2_2 
REMARK    2  A    between atoms: C6_7  and  C7_8 
REMARK       I    between atoms: C7_8  and  N2_10 
ROOT
ATOM      1  C2  <0> d          -0.226  -0.027   0.035  0.00  0.00    -0.043 A 
ATOM      2  C3  <0> d          -0.315  -0.730  -1.154  0.00  0.00    -0.059 A 
ATOM      3  C4  <0> d          -0.059  -2.089  -1.158  0.00  0.00     0.002 A 
ATOM      4  N1  <0> d           0.267  -2.724  -0.048  0.00  0.00    -0.272 NA
ATOM      5  C5  <0> d           0.365  -2.099   1.107  0.00  0.00     0.018 A 
ATOM      6  C6  <0> d           0.128  -0.727   1.194  0.00  0.00     0.055 A 
ATOM      7  H4  <0> d          -0.582  -0.222  -2.069  0.00  0.00     0.086 H 
ATOM      8  H5  <0> d          -0.129  -2.640  -2.084  0.00  0.00     0.114 H 
ATOM      9  H6  <0> d           0.635  -2.654   1.994  0.00  0.00     0.116 H 
ENDROOT
BRANCH   6  10
ATOM     10  C7  <0> d           0.244  -0.025   2.490  0.00  0.00     0.251 C 
ATOM     11  O1  <0> d           0.143   1.185   2.537  0.00  0.00    -0.268 OA
ATOM     12  N2  <0> d           0.461  -0.727   3.620  0.00  0.00    -0.366 N 
ATOM     13  H7  <0> d           0.541  -1.693   3.583  0.00  0.00     0.159 HD
ATOM     14  H8  <0> d           0.537  -0.267   4.470  0.00  0.00     0.159 HD
ENDBRANCH   6  10
BRANCH   1  15
ATOM     15  C1  <0> d          -0.496   1.455   0.079  0.00  0.00    -0.050 C 
ATOM     16  H1  <0> d           0.446   1.998   0.016  0.00  0.00     0.033 H 
ATOM     17  H2  <0> d          -1.133   1.733  -0.761  0.00  0.00     0.033 H 
ATOM     18  H3  <0> d          -0.999   1.705   1.014  0.00  0.00     0.033 H 
ENDBRANCH   1  15
TORSDOF 2
