REMARK  3 active torsions:
REMARK  status: ('A' for Active; 'I' for Inactive)
REMARK    1  A    between atoms: C1_1  and  C2_2 
REMARK    2  A    between atoms: C2_2  and  C3_4 
REMARK    3  A    between atoms: N1_7  and  C6_9 
ROOT
ATOM      1  C3  <0> d          -1.297   1.926   0.019  0.00  0.00     0.145 A 
ATOM      2  C4  <0> d          -2.589   1.343   0.022  0.00  0.00     0.085 A 
ATOM      3  C5  <0> d          -3.456   2.383   0.031  0.00  0.00     0.021 A 
ATOM      4  N1  <0> d          -2.717   3.521   0.034  0.00  0.00    -0.283 N 
ATOM      5  N2  <0> d          -1.464   3.236   0.032  0.00  0.00    -0.168 NA
ATOM      6 Cl1  <0> d          -2.978  -0.349   0.014  0.00  0.00    -0.080 Cl
ATOM      7  H4  <0> d          -4.534   2.319   0.036  0.00  0.00     0.116 H 
ENDROOT
BRANCH   1   8
ATOM      8  C2  <0> d          -0.014   1.209   0.009  0.00  0.00     0.177 C 
ATOM      9  O1  <0> d           0.002  -0.004   0.002  0.00  0.00    -0.291 OA
BRANCH   8  10
ATOM     10  C1  <0> d           1.280   1.980   0.001  0.00  0.00    -0.015 C 
ATOM     11  H1  <0> d           1.558   2.155  -0.944  0.00  0.00     0.038 H 
ATOM     12  H2  <0> d           1.142   2.928   0.521  0.00  0.00     0.038 H 
ATOM     13  H3  <0> d           2.053   1.398   0.504  0.00  0.00     0.038 H 
ENDBRANCH   8  10
ENDBRANCH   1   8
BRANCH   4  14
ATOM     14  C6  <0> d          -3.268   4.878   0.043  0.00  0.00     0.002 C 
ATOM     15  H5  <0> d          -3.400   5.210   1.073  0.00  0.00     0.059 H 
ATOM     16  H6  <0> d          -2.582   5.552  -0.470  0.00  0.00     0.059 H 
ATOM     17  H7  <0> d          -4.231   4.883  -0.467  0.00  0.00     0.059 H 
ENDBRANCH   4  14
TORSDOF 3
