REMARK  0 active torsions:
REMARK  status: ('A' for Active; 'I' for Inactive)
ROOT
ATOM      1  C1  <0> d           1.175   1.794   0.001  0.00  0.00    -0.077 A 
ATOM      2  C2  <0> d          -0.013   1.076   0.008  0.00  0.00    -0.066 A 
ATOM      3  C3  <0> d          -1.213   1.758   0.017  0.00  0.00     0.005 A 
ATOM      4  N1  <0> d          -1.240   3.077   0.029  0.00  0.00    -0.233 NA
ATOM      5  C4  <0> d          -0.132   3.794   0.023  0.00  0.00     0.209 A 
ATOM      6  C5  <0> d           1.109   3.177   0.008  0.00  0.00    -0.027 A 
ATOM      7  F1  <0> d          -0.208   5.143   0.030  0.00  0.00    -0.184 F 
ATOM      8  H1  <0> d           2.128   1.286  -0.011  0.00  0.00     0.083 H 
ATOM      9  H2  <0> d           0.002  -0.004   0.002  0.00  0.00     0.085 H 
ATOM     10  H3  <0> d          -2.141   1.205   0.019  0.00  0.00     0.114 H 
ATOM     11  H4  <0> d           2.013   3.768   0.003  0.00  0.00     0.090 H 
ENDROOT
TORSDOF 0
