REMARK  0 active torsions:
REMARK  status: ('A' for Active; 'I' for Inactive)
ROOT
ATOM      1  C1  <0> d          -0.018   1.502   0.010  0.00  0.00    -0.069 C 
ATOM      2  C2  <0> d           1.276   1.851  -0.000  0.00  0.00     0.002 C 
ATOM      3  N1  <0> d           2.094   0.775   0.065  0.00  0.00    -0.245 NA
ATOM      4  C3  <0> d           1.458  -0.310   0.376  0.00  0.00     0.139 C 
ATOM      5  C4  <0> d           0.002  -0.004   0.002  0.00  0.00     0.072 C 
ATOM      6  H1  <0> d          -0.205  -0.366  -1.005  0.00  0.00     0.069 H 
ATOM      7  C5  <0> d          -1.015  -0.556   0.973  0.00  0.00     0.101 C 
ATOM      8  C6  <0> d          -0.584  -1.615   1.716  0.00  0.00    -0.034 C 
ATOM      9  C7  <0> d           0.703  -2.137   1.534  0.00  0.00     0.007 C 
ATOM     10  N2  <0> d           1.666  -1.526   0.876  0.00  0.00    -0.244 NA
ATOM     11  O1  <0> d          -2.254  -0.040   1.097  0.00  0.00    -0.196 OA
ATOM     12  H2  <0> d          -0.880   2.153   0.026  0.00  0.00     0.080 H 
ATOM     13  H3  <0> d           1.625   2.871  -0.054  0.00  0.00     0.114 H 
ATOM     14  H4  <0> d          -1.241  -2.057   2.450  0.00  0.00     0.089 H 
ATOM     15  H5  <0> d           0.920  -3.104   1.964  0.00  0.00     0.114 H 
ENDROOT
TORSDOF 0
