REMARK  2 active torsions:
REMARK  status: ('A' for Active; 'I' for Inactive)
REMARK    1  A    between atoms: C1_1  and  C2_2 
REMARK    2  A    between atoms: C3_3  and  C10_12 
ROOT
ATOM      1  C2  <0> d          -2.424   3.868   0.045  0.00  0.00    -0.023 A 
ATOM      2  C3  <0> d          -2.330   5.232   0.052  0.00  0.00     0.059 A 
ATOM      3  N1  <0> d          -1.146   5.829   0.044  0.00  0.00    -0.154 NA
ATOM      4  N2  <0> d          -0.033   5.188   0.029  0.00  0.00    -0.149 NA
ATOM      5  C4  <0> d          -0.000   3.852   0.022  0.00  0.00     0.090 A 
ATOM      6  C5  <0> d          -1.224   3.133   0.030  0.00  0.00     0.002 A 
ATOM      7  C6  <0> d          -1.207   1.731   0.017  0.00  0.00    -0.070 A 
ATOM      8  C7  <0> d          -0.013   1.076   0.008  0.00  0.00    -0.082 A 
ATOM      9  C8  <0> d           1.191   1.780   0.000  0.00  0.00    -0.081 A 
ATOM     10  C9  <0> d           1.210   3.140   0.007  0.00  0.00    -0.053 A 
ATOM     11  H4  <0> d          -2.133   1.175   0.019  0.00  0.00     0.084 H 
ATOM     12  H5  <0> d           0.002  -0.004   0.002  0.00  0.00     0.083 H 
ATOM     13  H6  <0> d           2.123   1.235  -0.011  0.00  0.00     0.083 H 
ATOM     14  H7  <0> d           2.152   3.670   0.001  0.00  0.00     0.087 H 
ENDROOT
BRANCH   1  15
ATOM     15  C1  <0> d          -3.764   3.177   0.055  0.00  0.00    -0.048 C 
ATOM     16  H1  <0> d          -4.565   3.931   0.066  0.00  0.00     0.033 H 
ATOM     17  H2  <0> d          -3.843   2.544   0.951  0.00  0.00     0.033 H 
ATOM     18  H3  <0> d          -3.861   2.553  -0.846  0.00  0.00     0.033 H 
ENDBRANCH   1  15
BRANCH   2  19
ATOM     19  C10 <0> d          -3.585   6.065   0.068  0.00  0.00    -0.033 C 
ATOM     20  H8  <0> d          -3.317   7.132   0.071  0.00  0.00     0.035 H 
ATOM     21  H9  <0> d          -4.169   5.831   0.971  0.00  0.00     0.035 H 
ATOM     22  H10 <0> d          -4.186   5.841  -0.826  0.00  0.00     0.035 H 
ENDBRANCH   2  19
TORSDOF 2
