REMARK  0 active torsions:
REMARK  status: ('A' for Active; 'I' for Inactive)
ROOT
ATOM      1  C1  <0> d           0.002  -0.004   0.002  0.00  0.00    -0.051 C 
ATOM      2  C2  <0> d           1.223  -0.357   0.885  0.00  0.00    -0.039 C 
ATOM      3  C3  <0> d           1.799   1.032   1.302  0.00  0.00     0.049 C 
ATOM      4  H1  <0> d           2.825   1.035   1.670  0.00  0.00     0.084 H 
ATOM      5  C4  <0> d           1.524   1.863  -0.003  0.00  0.00    -0.028 C 
ATOM      6  C5  <0> d          -0.019   1.558   0.011  0.00  0.00     0.033 C 
ATOM      7  H2  <0> d          -0.625   2.041  -0.756  0.00  0.00     0.055 H 
ATOM      8  C6  <0> d          -0.323   1.910   1.475  0.00  0.00     0.263 C 
ATOM      9  O1  <0> d          -1.351   2.381   1.898  0.00  0.00    -0.265 OA
ATOM     10  O2  <0> d           0.781   1.589   2.218  0.00  0.00    -0.316 OA
ATOM     11  H3  <0> d          -0.914  -0.402   0.438  0.00  0.00     0.034 H 
ATOM     12  H4  <0> d           0.141  -0.380  -1.012  0.00  0.00     0.034 H 
ATOM     13  H5  <0> d           0.910  -0.920   1.764  0.00  0.00     0.036 H 
ATOM     14  H6  <0> d           1.959  -0.922   0.313  0.00  0.00     0.036 H 
ATOM     15  H7  <0> d           2.024   1.444  -0.876  0.00  0.00     0.038 H 
ATOM     16  H8  <0> d           1.740   2.924   0.125  0.00  0.00     0.038 H 
ENDROOT
TORSDOF 0
