REMARK  5 active torsions:
REMARK  status: ('A' for Active; 'I' for Inactive)
REMARK    1  A    between atoms: C1_1  and  C2_2 
REMARK    2  A    between atoms: C2_2  and  C3_3 
REMARK    3  A    between atoms: C8_9  and  C9_10 
REMARK    4  A    between atoms: C8_9  and  O1_12 
REMARK    5  A    between atoms: C9_10  and  C10_11 
ROOT
ATOM      1  C3  <0> d          -2.164   1.050   1.278  0.00  0.00    -0.025 C 
ATOM      2  H1  <0> d          -2.149  -0.040   1.272  0.00  0.00     0.044 H 
ATOM      3  C4  <0> d          -2.904   1.556   0.038  0.00  0.00    -0.059 C 
ATOM      4  C5  <0> d          -2.188   1.063  -1.221  0.00  0.00    -0.065 C 
ATOM      5  C6  <0> d          -0.753   1.593  -1.232  0.00  0.00    -0.062 C 
ATOM      6  C7  <0> d          -0.013   1.086   0.008  0.00  0.00    -0.036 C 
ATOM      7  C8  <0> d          -0.729   1.579   1.267  0.00  0.00     0.061 C 
ATOM      8  H7  <0> d          -2.919   2.646   0.044  0.00  0.00     0.033 H 
ATOM      9  H8  <0> d          -3.927   1.179   0.046  0.00  0.00     0.033 H 
ATOM     10  H9  <0> d          -2.715   1.424  -2.104  0.00  0.00     0.033 H 
ATOM     11  H10 <0> d          -2.173  -0.027  -1.227  0.00  0.00     0.033 H 
ATOM     12  H11 <0> d          -0.767   2.683  -1.226  0.00  0.00     0.033 H 
ATOM     13  H12 <0> d          -0.242   1.241  -2.128  0.00  0.00     0.033 H 
ATOM     14  H13 <0> d           0.002  -0.004   0.002  0.00  0.00     0.037 H 
ATOM     15  H14 <0> d           1.010   1.463   0.000  0.00  0.00     0.037 H 
ENDROOT
BRANCH   7  16
ATOM     16  C9  <0> d           0.011   1.072   2.506  0.00  0.00    -0.039 C 
ATOM     17  H15 <0> d          -0.499   1.424   3.403  0.00  0.00     0.036 H 
ATOM     18  H16 <0> d           0.026  -0.018   2.500  0.00  0.00     0.036 H 
BRANCH  16  19
ATOM     19  C10 <0> d           1.446   1.602   2.495  0.00  0.00    -0.074 C 
ATOM     20  H17 <0> d           1.957   1.250   1.599  0.00  0.00     0.027 H 
ATOM     21  H18 <0> d           1.432   2.692   2.502  0.00  0.00     0.027 H 
ATOM     22  H19 <0> d           1.974   1.241   3.378  0.00  0.00     0.027 H 
ENDBRANCH  16  19
ENDBRANCH   7  16
BRANCH   7  23
ATOM     23  O1  <0> d          -0.748   3.008   1.275  0.00  0.00    -0.389 OA
ATOM     24  H20 <0> d           0.130   3.413   1.268  0.00  0.00     0.210 HD
ENDBRANCH   7  23
BRANCH   1  25
ATOM     25  C2  <0> d          -2.880   1.543   2.537  0.00  0.00    -0.062 C 
ATOM     26  H5  <0> d          -2.305   1.258   3.417  0.00  0.00     0.033 H 
ATOM     27  H6  <0> d          -2.974   2.628   2.499  0.00  0.00     0.033 H 
BRANCH  25  28
ATOM     28  C1  <0> d          -4.273   0.914   2.611  0.00  0.00    -0.076 C 
ATOM     29  H2  <0> d          -4.783   1.265   3.508  0.00  0.00     0.027 H 
ATOM     30  H3  <0> d          -4.848   1.199   1.730  0.00  0.00     0.027 H 
ATOM     31  H4  <0> d          -4.180  -0.172   2.648  0.00  0.00     0.027 H 
ENDBRANCH  25  28
ENDBRANCH   1  25
TORSDOF 5
