REMARK  4 active torsions:
REMARK  status: ('A' for Active; 'I' for Inactive)
REMARK    1  A    between atoms: C1_1  and  C2_2 
REMARK    2  A    between atoms: C2_2  and  O1_3 
REMARK    3  A    between atoms: O1_3  and  C3_4 
REMARK    4  A    between atoms: C3_4  and  C4_6 
ROOT
ATOM      1  C4  <0> d          -1.229   3.139   0.030  0.00  0.00     0.042 A 
ATOM      2  C5  <0> d          -1.224   1.741   0.017  0.00  0.00    -0.050 A 
ATOM      3  C6  <0> d          -0.013   1.076   0.008  0.00  0.00     0.003 A 
ATOM      4  N1  <0> d           1.125   1.741   0.001  0.00  0.00    -0.273 NA
ATOM      5  C7  <0> d           1.165   3.059   0.007  0.00  0.00     0.003 A 
ATOM      6  C8  <0> d           0.002   3.804   0.022  0.00  0.00    -0.050 A 
ATOM      7  H6  <0> d          -2.152   1.189   0.019  0.00  0.00     0.087 H 
ATOM      8  H7  <0> d           0.002  -0.004   0.002  0.00  0.00     0.114 H 
ATOM      9  H8  <0> d           2.120   3.563   0.001  0.00  0.00     0.114 H 
ATOM     10  H9  <0> d           0.042   4.883   0.027  0.00  0.00     0.087 H 
ENDROOT
BRANCH   1  11
ATOM     11  C3  <0> d          -2.502   3.895   0.046  0.00  0.00     0.293 C 
ATOM     12  O2  <0> d          -2.487   5.109   0.052  0.00  0.00    -0.259 OA
BRANCH  11  13
ATOM     13  O1  <0> d          -3.676   3.236   0.054  0.00  0.00    -0.318 OA
BRANCH  13  14
ATOM     14  C2  <0> d          -4.884   4.042   0.069  0.00  0.00     0.026 C 
ATOM     15  H4  <0> d          -4.893   4.666   0.962  0.00  0.00     0.074 H 
ATOM     16  H5  <0> d          -4.910   4.675  -0.818  0.00  0.00     0.074 H 
BRANCH  14  17
ATOM     17  C1  <0> d          -6.109   3.125   0.076  0.00  0.00    -0.056 C 
ATOM     18  H1  <0> d          -7.016   3.729   0.087  0.00  0.00     0.030 H 
ATOM     19  H2  <0> d          -6.100   2.500  -0.817  0.00  0.00     0.030 H 
ATOM     20  H3  <0> d          -6.083   2.491   0.963  0.00  0.00     0.030 H 
ENDBRANCH  14  17
ENDBRANCH  13  14
ENDBRANCH  11  13
ENDBRANCH   1  11
TORSDOF 4
