REMARK  5 active torsions:
REMARK  status: ('A' for Active; 'I' for Inactive)
REMARK    1  A    between atoms: C1_1  and  C2_2 
REMARK    2  A    between atoms: C2_2  and  C3_3 
REMARK    3  A    between atoms: C3_3  and  C4_4 
REMARK    4  A    between atoms: C4_4  and  C5_5 
REMARK    5  A    between atoms: C5_5  and  C6_6 
ROOT
ATOM      1  C4  <0> d          -1.083   5.766  -1.139  0.00  0.00    -0.060 C 
ATOM      2  H8  <0> d          -0.638   5.433  -2.076  0.00  0.00     0.033 H 
ATOM      3  H9  <0> d          -2.084   5.345  -1.042  0.00  0.00     0.033 H 
ENDROOT
BRANCH   1   4
ATOM      4  C3  <0> d          -1.169   7.294  -1.130  0.00  0.00    -0.065 C 
ATOM      5  H6  <0> d          -1.614   7.627  -0.193  0.00  0.00     0.033 H 
ATOM      6  H7  <0> d          -0.169   7.715  -1.227  0.00  0.00     0.033 H 
BRANCH   4   7
ATOM      7  C2  <0> d          -2.035   7.762  -2.301  0.00  0.00    -0.069 C 
ATOM      8  H4  <0> d          -1.591   7.428  -3.238  0.00  0.00     0.032 H 
ATOM      9  H5  <0> d          -3.036   7.341  -2.204  0.00  0.00     0.032 H 
BRANCH   7  10
ATOM     10  C1  <0> d          -2.122   9.290  -2.292  0.00  0.00    -0.077 C 
ATOM     11  H1  <0> d          -2.567   9.623  -1.355  0.00  0.00     0.027 H 
ATOM     12  H2  <0> d          -1.121   9.711  -2.390  0.00  0.00     0.027 H 
ATOM     13  H3  <0> d          -2.739   9.623  -3.127  0.00  0.00     0.027 H 
ENDBRANCH   7  10
ENDBRANCH   4   7
ENDBRANCH   1   4
BRANCH   1  14
ATOM     14  C5  <0> d          -0.217   5.298   0.032  0.00  0.00    -0.025 C 
ATOM     15  H10 <0> d          -0.662   5.631   0.970  0.00  0.00     0.042 H 
ATOM     16  H11 <0> d           0.784   5.719  -0.065  0.00  0.00     0.042 H 
BRANCH  14  17
ATOM     17  C6  <0> d          -0.132   3.793   0.024  0.00  0.00     0.034 A 
ATOM     18  N1  <0> d          -1.239   3.078   0.030  0.00  0.00    -0.266 NA
ATOM     19  C10 <0> d          -1.214   1.759   0.017  0.00  0.00     0.002 A 
ATOM     20  C9  <0> d          -0.013   1.076   0.008  0.00  0.00    -0.066 A 
ATOM     21  H15 <0> d          -2.142   1.207   0.018  0.00  0.00     0.114 H 
ATOM     22  C8  <0> d           1.174   1.794   0.001  0.00  0.00    -0.080 A 
ATOM     23  H14 <0> d           0.002  -0.004   0.002  0.00  0.00     0.085 H 
ATOM     24  C7  <0> d           1.107   3.179   0.009  0.00  0.00    -0.059 A 
ATOM     25  H13 <0> d           2.127   1.287  -0.011  0.00  0.00     0.083 H 
ATOM     26  H12 <0> d           2.010   3.770   0.004  0.00  0.00     0.086 H 
ENDBRANCH  14  17
ENDBRANCH   1  14
TORSDOF 5
