REMARK  3 active torsions:
REMARK  status: ('A' for Active; 'I' for Inactive)
REMARK    1  A    between atoms: C1_1  and  C2_2 
REMARK    2  A    between atoms: C2_2  and  C4_6 
REMARK    3  A    between atoms: C7_9  and  N2_12 
ROOT
ATOM      1  C2  <0> d           2.490   1.044  -0.016  0.00  0.00     0.052 C 
ATOM      2  H1  <0> d           2.303  -0.029  -0.020  0.00  0.00     0.069 H 
ATOM      3  C3  <0> d           3.246   1.415  -1.223  0.00  0.00     0.068 C 
ATOM      4  N1  <0> d           3.829   1.702  -2.155  0.00  0.00    -0.197 NA
ENDROOT
BRANCH   1   5
ATOM      5  C1  <0> d           3.300   1.417   1.228  0.00  0.00    -0.057 C 
ATOM      6  H2  <0> d           3.486   2.491   1.232  0.00  0.00     0.029 H 
ATOM      7  H3  <0> d           2.740   1.142   2.121  0.00  0.00     0.029 H 
ATOM      8  H4  <0> d           4.250   0.883   1.216  0.00  0.00     0.029 H 
ENDBRANCH   1   5
BRANCH   1   9
ATOM      9  C4  <0> d           1.176   1.783   0.000  0.00  0.00    -0.041 A 
ATOM     10  C9  <0> d           1.162   3.166   0.008  0.00  0.00    -0.073 A 
ATOM     11  C8  <0> d          -0.040   3.845   0.024  0.00  0.00    -0.057 A 
ATOM     12  H8  <0> d           2.092   3.715   0.003  0.00  0.00     0.084 H 
ATOM     13  C7  <0> d          -1.236   3.138   0.031  0.00  0.00     0.025 A 
ATOM     14  H7  <0> d          -0.051   4.925   0.029  0.00  0.00     0.086 H 
ATOM     15  C6  <0> d          -1.218   1.749   0.017  0.00  0.00    -0.057 A 
ATOM     16  C5  <0> d          -0.013   1.076   0.008  0.00  0.00    -0.073 A 
ATOM     17  H6  <0> d          -2.146   1.197   0.019  0.00  0.00     0.086 H 
ATOM     18  H5  <0> d           0.002  -0.004   0.002  0.00  0.00     0.084 H 
BRANCH  13  19
ATOM     19  N2  <0> d          -2.454   3.822   0.046  0.00  0.00    -0.399 N 
ATOM     20  H9  <0> d          -2.465   4.792   0.052  0.00  0.00     0.156 HD
ATOM     21  H10 <0> d          -3.288   3.328   0.051  0.00  0.00     0.156 HD
ENDBRANCH  13  19
ENDBRANCH   1   9
TORSDOF 3
