REMARK  0 active torsions:
REMARK  status: ('A' for Active; 'I' for Inactive)
ROOT
ATOM      1  C1  <0> d          -0.017   1.403   0.010  0.00  0.00    -0.046 A 
ATOM      2  C2  <0> d           1.177   2.061   0.002  0.00  0.00    -0.041 A 
ATOM      3  C3  <0> d           2.380   1.352  -0.013  0.00  0.00     0.128 A 
ATOM      4  N1  <0> d           2.425   0.042  -0.021  0.00  0.00    -0.213 NA
ATOM      5  C4  <0> d           1.304  -0.687  -0.015  0.00  0.00     0.205 A 
ATOM      6  C5  <0> d           0.002  -0.004   0.002  0.00  0.00     0.130 A 
ATOM      7  N2  <0> d          -0.893  -0.977   0.005  0.00  0.00    -0.127 NA
ATOM      8  N3  <0> d          -0.277  -2.108  -0.007  0.00  0.00    -0.041 NA
ATOM      9  N4  <0> d           1.003  -1.977  -0.019  0.00  0.00    -0.108 NA
ATOM     10 Cl1  <0> d           3.872   2.239  -0.023  0.00  0.00    -0.062 Cl
ATOM     11  H1  <0> d          -0.950   1.946   0.026  0.00  0.00     0.087 H 
ATOM     12  H2  <0> d           1.193   3.140   0.007  0.00  0.00     0.088 H 
ENDROOT
TORSDOF 0
