REMARK  2 active torsions:
REMARK  status: ('A' for Active; 'I' for Inactive)
REMARK    1  A    between atoms: C1_1  and  C2_2 
REMARK    2  A    between atoms: C2_2  and  N1_3 
ROOT
ATOM      1  N1  <0> d           2.148   1.397   1.151  0.00  0.00     0.092 N 
ATOM      2  C3  <0> d           1.421   1.950  -0.001  0.00  0.00     0.133 C 
ATOM      3  C4  <0> d          -0.017   1.426   0.010  0.00  0.00     0.044 C 
ATOM      4  O1  <0> d           0.002  -0.004   0.002  0.00  0.00    -0.388 OA
ATOM      5  C5  <0> d           0.701  -0.577   1.111  0.00  0.00     0.044 C 
ATOM      6  C6  <0> d           2.147  -0.072   1.111  0.00  0.00     0.133 C 
ATOM      7  H6  <0> d           1.413   3.049   0.063  0.00  0.00     0.083 H 
ATOM      8  H7  <0> d           1.919   1.641  -0.932  0.00  0.00     0.083 H 
ATOM      9  H8  <0> d          -0.531   1.783   0.915  0.00  0.00     0.077 H 
ATOM     10  H9  <0> d          -0.548   1.792  -0.881  0.00  0.00     0.077 H 
ATOM     11  H10 <0> d           0.207  -0.280   2.048  0.00  0.00     0.077 H 
ATOM     12  H11 <0> d           0.693  -1.673   1.022  0.00  0.00     0.077 H 
ATOM     13  H12 <0> d           2.656  -0.414   0.198  0.00  0.00     0.083 H 
ATOM     14  H13 <0> d           2.674  -0.464   1.994  0.00  0.00     0.083 H 
ENDROOT
BRANCH   1  15
ATOM     15  C2  <0> d           3.519   1.922   1.210  0.00  0.00     0.110 C 
ATOM     16  H4  <0> d           4.125   1.452   0.421  0.00  0.00     0.079 H 
ATOM     17  H5  <0> d           3.956   1.695   2.193  0.00  0.00     0.079 H 
BRANCH  15  18
ATOM     18  C1  <0> d           3.495   3.437   1.000  0.00  0.00    -0.051 C 
ATOM     19  H1  <0> d           4.521   3.830   1.044  0.00  0.00     0.029 H 
ATOM     20  H2  <0> d           2.888   3.907   1.788  0.00  0.00     0.029 H 
ATOM     21  H3  <0> d           3.057   3.664   0.017  0.00  0.00     0.029 H 
ENDBRANCH  15  18
ENDBRANCH   1  15
TORSDOF 2
