REMARK  1 active torsions:
REMARK  status: ('A' for Active; 'I' for Inactive)
REMARK    1  A    between atoms: C3_3  and  C5_6 
ROOT
ATOM      1  C1  <0> d          -2.221   6.921   0.056  0.00  0.00    -0.059 A 
ATOM      2  C2  <0> d          -2.234   5.514   0.045  0.00  0.00    -0.046 A 
ATOM      3  C3  <0> d          -0.932   5.110   0.036  0.00  0.00     0.110 A 
ATOM      4  O1  <0> d          -0.153   6.210   0.033  0.00  0.00    -0.320 OA
ATOM      5  C4  <0> d          -0.929   7.306   0.045  0.00  0.00     0.019 A 
ATOM      6  H1  <0> d          -3.084   7.571   0.067  0.00  0.00     0.086 H 
ATOM      7  H2  <0> d          -3.106   4.877   0.045  0.00  0.00     0.088 H 
ATOM      8  H3  <0> d          -0.576   8.326   0.046  0.00  0.00     0.123 H 
ENDROOT
BRANCH   3   9
ATOM      9  C5  <0> d          -0.460   3.717   0.025  0.00  0.00     0.131 A 
ATOM     10  S1  <0> d          -1.405   2.199   0.019  0.00  0.00    -0.078 SA
ATOM     11  C7  <0> d          -0.013   1.076   0.008  0.00  0.00    -0.026 A 
ATOM     12  C6  <0> d           1.022   1.958   0.003  0.00  0.00     0.010 A 
ATOM     13  H5  <0> d           0.002  -0.004   0.002  0.00  0.00     0.097 H 
ATOM     14  N1  <0> d           0.782   3.248   0.012  0.00  0.00    -0.250 NA
ATOM     15  H4  <0> d           2.040   1.597  -0.008  0.00  0.00     0.115 H 
ENDBRANCH   3   9
TORSDOF 1
