REMARK  5 active torsions:
REMARK  status: ('A' for Active; 'I' for Inactive)
REMARK    1  A    between atoms: C1_1  and  C2_2 
REMARK    2  A    between atoms: C2_2  and  C3_3 
REMARK    3  A    between atoms: C2_2  and  C4_4 
REMARK    4  A    between atoms: C6_7  and  C8_12 
REMARK    5  A    between atoms: C8_12  and  O2_13 
ROOT
ATOM      1  C4  <0> d          -1.266   2.058   0.019  0.00  0.00     0.028 C 
ATOM      2  H1  <0> d          -1.710   2.095  -0.976  0.00  0.00     0.055 H 
ATOM      3  C5  <0> d          -0.768   3.460   0.446  0.00  0.00    -0.033 C 
ATOM      4  C6  <0> d           0.711   3.415   0.003  0.00  0.00     0.033 C 
ATOM      5  H2  <0> d           1.335   3.964   0.708  0.00  0.00     0.075 H 
ATOM      6  N1  <0> d           1.077   1.993   0.003  0.00  0.00    -0.354 N 
ATOM      7  C7  <0> d          -0.014   1.209   0.009  0.00  0.00     0.222 C 
ATOM      8  O1  <0> d           0.002  -0.004   0.002  0.00  0.00    -0.273 OA
ATOM      9  H10 <0> d          -0.848   3.594   1.525  0.00  0.00     0.037 H 
ATOM     10  H11 <0> d          -1.310   4.243  -0.084  0.00  0.00     0.037 H 
ATOM     11  H12 <0> d           1.989   1.663  -0.002  0.00  0.00     0.162 HD
ENDROOT
BRANCH   1  12
ATOM     12  C2  <0> d          -2.273   1.516   1.035  0.00  0.00    -0.049 C 
ATOM     13  H6  <0> d          -1.819   1.506   2.026  0.00  0.00     0.040 H 
BRANCH  12  14
ATOM     14  C1  <0> d          -3.513   2.412   1.052  0.00  0.00    -0.072 C 
ATOM     15  H3  <0> d          -4.230   2.026   1.776  0.00  0.00     0.028 H 
ATOM     16  H4  <0> d          -3.225   3.426   1.331  0.00  0.00     0.028 H 
ATOM     17  H5  <0> d          -3.967   2.423   0.061  0.00  0.00     0.028 H 
ENDBRANCH  12  14
BRANCH  12  18
ATOM     18  C3  <0> d          -2.677   0.093   0.644  0.00  0.00    -0.072 C 
ATOM     19  H7  <0> d          -1.794  -0.545   0.632  0.00  0.00     0.028 H 
ATOM     20  H8  <0> d          -3.394  -0.293   1.369  0.00  0.00     0.028 H 
ATOM     21  H9  <0> d          -3.131   0.104  -0.347  0.00  0.00     0.028 H 
ENDBRANCH  12  18
ENDBRANCH   1  12
BRANCH   4  22
ATOM     22  C8  <0> d           0.861   4.000  -1.403  0.00  0.00     0.035 C 
ATOM     23  H13 <0> d           0.297   3.394  -2.111  0.00  0.00     0.077 H 
ATOM     24  H14 <0> d           0.479   5.021  -1.413  0.00  0.00     0.077 H 
BRANCH  22  25
ATOM     25  O2  <0> d           2.241   4.004  -1.772  0.00  0.00    -0.399 OA
ATOM     26  H15 <0> d           2.411   4.363  -2.654  0.00  0.00     0.209 HD
ENDBRANCH  22  25
ENDBRANCH   4  22
TORSDOF 5
