REMARK  8 active torsions:
REMARK  status: ('A' for Active; 'I' for Inactive)
REMARK    1  A    between atoms: C1_1  and  C2_2 
REMARK    2  A    between atoms: C2_2  and  C3_3 
REMARK    3  A    between atoms: C3_3  and  C4_5 
REMARK    4  A    between atoms: C3_3  and  N1_6 
REMARK       I    between atoms: N1_6  and  C5_7 
REMARK    5  A    between atoms: C5_7  and  C6_9 
REMARK    6  A    between atoms: C6_9  and  O2_10 
REMARK    7  A    between atoms: O2_10  and  C7_11 
REMARK    8  A    between atoms: C7_11  and  C8_12 
ROOT
ATOM      1  N1  <0> d          -0.072  -0.389   2.561  0.00  0.00    -0.355 N 
ATOM      2  C5  <0> d           0.870  -1.093   3.219  0.00  0.00     0.241 C 
ATOM      3  O1  <0> d           1.787  -0.517   3.766  0.00  0.00    -0.271 OA
ATOM      4  H10 <0> d          -0.805  -0.850   2.124  0.00  0.00     0.162 HD
ENDROOT
BRANCH   1   5
ATOM      5  C3  <0> d           0.011   1.072   2.506  0.00  0.00     0.008 C 
ATOM      6  H1  <0> d           1.057   1.375   2.454  0.00  0.00     0.071 H 
BRANCH   5   7
ATOM      7  C2  <0> d          -0.729   1.579   1.267  0.00  0.00    -0.050 C 
ATOM      8  H5  <0> d          -0.744   2.669   1.273  0.00  0.00     0.035 H 
ATOM      9  H6  <0> d          -1.751   1.202   1.275  0.00  0.00     0.035 H 
BRANCH   7  10
ATOM     10  C1  <0> d          -0.013   1.086   0.008  0.00  0.00    -0.075 C 
ATOM     11  H2  <0> d           0.002  -0.004   0.002  0.00  0.00     0.027 H 
ATOM     12  H3  <0> d           1.010   1.463   0.000  0.00  0.00     0.027 H 
ATOM     13  H4  <0> d          -0.540   1.447  -0.875  0.00  0.00     0.027 H 
ENDBRANCH   7  10
ENDBRANCH   5   7
BRANCH   5  14
ATOM     14  C4  <0> d          -0.630   1.667   3.762  0.00  0.00    -0.057 C 
ATOM     15  H7  <0> d          -0.103   1.306   4.645  0.00  0.00     0.030 H 
ATOM     16  H8  <0> d          -0.568   2.754   3.721  0.00  0.00     0.030 H 
ATOM     17  H9  <0> d          -1.676   1.364   3.814  0.00  0.00     0.030 H 
ENDBRANCH   5  14
ENDBRANCH   1   5
BRANCH   2  18
ATOM     18  C6  <0> d           0.785  -2.597   3.275  0.00  0.00     0.093 C 
ATOM     19  H11 <0> d          -0.148  -2.890   3.757  0.00  0.00     0.089 H 
ATOM     20  H12 <0> d           0.813  -3.001   2.263  0.00  0.00     0.089 H 
BRANCH  18  21
ATOM     21  O2  <0> d           1.889  -3.109   4.023  0.00  0.00    -0.382 OA
BRANCH  21  22
ATOM     22  C7  <0> d           1.904  -4.534   4.138  0.00  0.00     0.017 C 
ATOM     23  H13 <0> d           0.994  -4.867   4.638  0.00  0.00     0.073 H 
ATOM     24  H14 <0> d           1.955  -4.977   3.143  0.00  0.00     0.073 H 
BRANCH  22  25
ATOM     25  C8  <0> d           3.123  -4.968   4.954  0.00  0.00    -0.056 C 
ATOM     26  H15 <0> d           4.032  -4.634   4.454  0.00  0.00     0.030 H 
ATOM     27  H16 <0> d           3.071  -4.524   5.948  0.00  0.00     0.030 H 
ATOM     28  H17 <0> d           3.134  -6.054   5.041  0.00  0.00     0.030 H 
ENDBRANCH  22  25
ENDBRANCH  21  22
ENDBRANCH  18  21
ENDBRANCH   2  18
TORSDOF 8
