REMARK  0 active torsions:
REMARK  status: ('A' for Active; 'I' for Inactive)
ROOT
ATOM      1  C1  <0> d          -0.019   1.539   0.011  0.00  0.00    -0.056 C 
ATOM      2  C2  <0> d           1.483   1.896  -0.002  0.00  0.00    -0.036 C 
ATOM      3  C3  <0> d           2.176   0.712   0.635  0.00  0.00     0.007 A 
ATOM      4  C4  <0> d           1.321  -0.387   0.639  0.00  0.00     0.064 A 
ATOM      5  N1  <0> d           1.944  -1.400   1.195  0.00  0.00    -0.178 NA
ATOM      6  N2  <0> d           3.228  -0.989   1.573  0.00  0.00    -0.267 N 
ATOM      7  H1  <0> d           3.912  -1.700   2.060  0.00  0.00     0.190 HD
ATOM      8  C5  <0> d           3.365   0.324   1.222  0.00  0.00     0.138 A 
ATOM      9  C6  <0> d           4.522   1.143   1.424  0.00  0.00     0.119 C 
ATOM     10  N3  <0> d           5.441   1.792   1.584  0.00  0.00    -0.190 NA
ATOM     11  C7  <0> d           0.002  -0.004   0.002  0.00  0.00    -0.022 C 
ATOM     12  H2  <0> d          -0.551   1.903  -0.881  0.00  0.00     0.034 H 
ATOM     13  H3  <0> d          -0.534   1.894   0.915  0.00  0.00     0.034 H 
ATOM     14  H4  <0> d           1.815   2.049  -1.039  0.00  0.00     0.040 H 
ATOM     15  H5  <0> d           1.645   2.819   0.575  0.00  0.00     0.040 H 
ATOM     16  H6  <0> d          -0.852  -0.386   0.581  0.00  0.00     0.042 H 
ATOM     17  H7  <0> d          -0.067  -0.366  -1.034  0.00  0.00     0.042 H 
ENDROOT
TORSDOF 0
