REMARK  4 active torsions:
REMARK  status: ('A' for Active; 'I' for Inactive)
REMARK    1  A    between atoms: C1_1  and  C2_2 
REMARK    2  A    between atoms: C4_4  and  C9_10 
REMARK    3  A    between atoms: C5_5  and  N1_9 
REMARK    4  A    between atoms: C7_7  and  C8_8 
ROOT
ATOM      1  C2  <0> d           0.002  -0.004   0.002  0.00  0.00    -0.056 A 
ATOM      2  C3  <0> d           0.006  -0.687  -1.200  0.00  0.00    -0.069 A 
ATOM      3  C4  <0> d           0.024  -2.068  -1.212  0.00  0.00    -0.035 A 
ATOM      4  C5  <0> d           0.040  -2.771  -0.013  0.00  0.00     0.032 A 
ATOM      5  C6  <0> d           0.036  -2.081   1.192  0.00  0.00    -0.051 A 
ATOM      6  C7  <0> d           0.023  -0.700   1.196  0.00  0.00    -0.054 A 
ATOM      7  H4  <0> d          -0.006  -0.141  -2.132  0.00  0.00     0.085 H 
ATOM      8  H5  <0> d           0.047  -2.625   2.126  0.00  0.00     0.087 H 
ENDROOT
BRANCH   1   9
ATOM      9  C1  <0> d          -0.018   1.503   0.010  0.00  0.00    -0.051 C 
ATOM     10  H1  <0> d           1.004   1.880   0.003  0.00  0.00     0.033 H 
ATOM     11  H2  <0> d          -0.545   1.864  -0.873  0.00  0.00     0.033 H 
ATOM     12  H3  <0> d          -0.529   1.854   0.907  0.00  0.00     0.033 H 
ENDBRANCH   1   9
BRANCH   6  13
ATOM     13  C8  <0> d           0.025   0.049   2.504  0.00  0.00    -0.051 C 
ATOM     14  H6  <0> d          -1.002   0.215   2.829  0.00  0.00     0.033 H 
ATOM     15  H7  <0> d           0.554  -0.536   3.257  0.00  0.00     0.033 H 
ATOM     16  H8  <0> d           0.525   1.009   2.372  0.00  0.00     0.033 H 
ENDBRANCH   6  13
BRANCH   3  17
ATOM     17  C9  <0> d           0.028  -2.812  -2.522  0.00  0.00    -0.049 C 
ATOM     18  H11 <0> d           1.056  -2.977  -2.844  0.00  0.00     0.033 H 
ATOM     19  H12 <0> d          -0.472  -3.772  -2.397  0.00  0.00     0.033 H 
ATOM     20  H13 <0> d          -0.498  -2.224  -3.275  0.00  0.00     0.033 H 
ENDBRANCH   3  17
BRANCH   4  21
ATOM     21  N1  <0> d           0.058  -4.167  -0.021  0.00  0.00    -0.399 N 
ATOM     22  H9  <0> d           0.060  -4.648  -0.864  0.00  0.00     0.156 HD
ATOM     23  H10 <0> d           0.069  -4.657   0.816  0.00  0.00     0.156 HD
ENDBRANCH   4  21
TORSDOF 4
