REMARK  8 active torsions:
REMARK  status: ('A' for Active; 'I' for Inactive)
REMARK    1  A    between atoms: C1_1  and  C2_2 
REMARK    2  A    between atoms: C2_2  and  C3_3 
REMARK    3  A    between atoms: C2_2  and  C4_4 
REMARK    4  A    between atoms: C2_2  and  C5_5 
REMARK    5  A    between atoms: C5_5  and  C6_7 
REMARK    6  A    between atoms: C6_7  and  C7_8 
REMARK    7  A    between atoms: C6_7  and  C8_9 
REMARK    8  A    between atoms: C6_7  and  C9_10 
ROOT
ATOM      1  C5  <0> d          -0.186   0.928   0.443  0.00  0.00     0.142 C 
ATOM      2  O1  <0> d          -0.316   0.040   1.251  0.00  0.00    -0.296 OA
ENDROOT
BRANCH   1   3
ATOM      3  C2  <0> d           1.137   1.127  -0.251  0.00  0.00     0.010 C 
BRANCH   3   4
ATOM      4  C1  <0> d           1.021   0.674  -1.708  0.00  0.00    -0.063 C 
ATOM      5  H1  <0> d           0.254   1.263  -2.212  0.00  0.00     0.029 H 
ATOM      6  H2  <0> d           1.978   0.818  -2.210  0.00  0.00     0.029 H 
ATOM      7  H3  <0> d           0.749  -0.381  -1.740  0.00  0.00     0.029 H 
ENDBRANCH   3   4
BRANCH   3   8
ATOM      8  C3  <0> d           1.519   2.608  -0.206  0.00  0.00    -0.063 C 
ATOM      9  H4  <0> d           1.474   2.963   0.823  0.00  0.00     0.029 H 
ATOM     10  H5  <0> d           2.532   2.733  -0.590  0.00  0.00     0.029 H 
ATOM     11  H6  <0> d           0.824   3.181  -0.820  0.00  0.00     0.029 H 
ENDBRANCH   3   8
BRANCH   3  12
ATOM     12  C4  <0> d           2.213   0.300   0.456  0.00  0.00    -0.063 C 
ATOM     13  H7  <0> d           1.948  -0.756   0.411  0.00  0.00     0.029 H 
ATOM     14  H8  <0> d           3.173   0.455  -0.038  0.00  0.00     0.029 H 
ATOM     15  H9  <0> d           2.286   0.614   1.497  0.00  0.00     0.029 H 
ENDBRANCH   3  12
ENDBRANCH   1   3
BRANCH   1  16
ATOM     16  C6  <0> d          -1.347   1.833   0.124  0.00  0.00     0.010 C 
BRANCH  16  17
ATOM     17  C7  <0> d          -2.641   1.207   0.649  0.00  0.00    -0.063 C 
ATOM     18  H10 <0> d          -2.569   1.075   1.729  0.00  0.00     0.029 H 
ATOM     19  H11 <0> d          -3.481   1.862   0.419  0.00  0.00     0.029 H 
ATOM     20  H12 <0> d          -2.794   0.238   0.174  0.00  0.00     0.029 H 
ENDBRANCH  16  17
BRANCH  16  21
ATOM     21  C8  <0> d          -1.132   3.193   0.791  0.00  0.00    -0.063 C 
ATOM     22  H13 <0> d          -0.321   3.720   0.289  0.00  0.00     0.029 H 
ATOM     23  H14 <0> d          -2.047   3.782   0.720  0.00  0.00     0.029 H 
ATOM     24  H15 <0> d          -0.876   3.047   1.841  0.00  0.00     0.029 H 
ENDBRANCH  16  21
BRANCH  16  25
ATOM     25  C9  <0> d          -1.449   2.019  -1.391  0.00  0.00    -0.063 C 
ATOM     26  H16 <0> d          -1.462   1.043  -1.876  0.00  0.00     0.029 H 
ATOM     27  H17 <0> d          -2.366   2.557  -1.631  0.00  0.00     0.029 H 
ATOM     28  H18 <0> d          -0.590   2.589  -1.745  0.00  0.00     0.029 H 
ENDBRANCH  16  25
ENDBRANCH   1  16
TORSDOF 8
