REMARK  1 active torsions:
REMARK  status: ('A' for Active; 'I' for Inactive)
REMARK    1  A    between atoms: C4_4  and  N2_9 
ROOT
ATOM      1  C1  <0> d          -1.235   2.112   0.019  0.00  0.00    -0.060 A 
ATOM      2  C2  <0> d          -1.252   3.491   0.032  0.00  0.00    -0.042 A 
ATOM      3  C3  <0> d          -0.064   4.202   0.024  0.00  0.00     0.142 A 
ATOM      4  C4  <0> d           1.155   3.529   0.009  0.00  0.00     0.066 A 
ATOM      5  C5  <0> d           1.181   2.144   0.002  0.00  0.00    -0.035 A 
ATOM      6  C6  <0> d          -0.017   1.428   0.010  0.00  0.00     0.046 A 
ATOM      7  C7  <0> d           0.002  -0.004   0.002  0.00  0.00     0.099 C 
ATOM      8  N1  <0> d           0.018  -1.140  -0.004  0.00  0.00    -0.191 NA
ATOM      9  F1  <0> d          -0.087   5.553   0.032  0.00  0.00    -0.204 F 
ATOM     10  H1  <0> d          -2.164   1.560   0.021  0.00  0.00     0.086 H 
ATOM     11  H2  <0> d          -2.194   4.018   0.043  0.00  0.00     0.088 H 
ATOM     12  H3  <0> d           2.126   1.621  -0.009  0.00  0.00     0.089 H 
ENDROOT
BRANCH   4  13
ATOM     13  N2  <0> d           2.353   4.251   0.002  0.00  0.00    -0.397 N 
ATOM     14  H4  <0> d           3.202   3.782  -0.008  0.00  0.00     0.156 HD
ATOM     15  H5  <0> d           2.335   5.221   0.007  0.00  0.00     0.156 HD
ENDBRANCH   4  13
TORSDOF 1
