REMARK  2 active torsions:
REMARK  status: ('A' for Active; 'I' for Inactive)
REMARK    1  A    between atoms: N2_4  and  C3_6 
REMARK    2  A    between atoms: C3_6  and  C4_7 
ROOT
ATOM      1  C4  <0> d          -0.753   1.593  -1.232  0.00  0.00     0.031 C 
ATOM      2  C5  <0> d          -0.064   1.118  -2.443  0.00  0.00     0.060 C 
ATOM      3  N4  <0> d           0.468   0.752  -3.377  0.00  0.00    -0.197 NA
ATOM      4  H5  <0> d          -1.775   1.215  -1.224  0.00  0.00     0.057 H 
ATOM      5  H6  <0> d          -0.767   2.683  -1.226  0.00  0.00     0.057 H 
ENDROOT
BRANCH   1   6
ATOM      6  C3  <0> d          -0.013   1.086   0.008  0.00  0.00     0.029 C 
ATOM      7  H3  <0> d           0.002  -0.004   0.002  0.00  0.00     0.068 H 
ATOM      8  H4  <0> d           1.010   1.463   0.000  0.00  0.00     0.068 H 
BRANCH   6   9
ATOM      9  N2  <0> d          -0.698   1.558   1.213  0.00  0.00    -0.261 N 
ATOM     10  C2  <0> d          -1.156   0.804   2.228  0.00  0.00     0.084 A 
ATOM     11  N1  <0> d          -1.704   1.600   3.110  0.00  0.00    -0.234 NA
ATOM     12  H2  <0> d          -1.084  -0.271   2.302  0.00  0.00     0.146 H 
ATOM     13  C1  <0> d          -1.616   2.863   2.696  0.00  0.00     0.107 A 
ATOM     14  N3  <0> d          -1.003   2.889   1.541  0.00  0.00    -0.165 NA
ATOM     15  H1  <0> d          -1.986   3.726   3.229  0.00  0.00     0.149 H 
ENDBRANCH   6   9
ENDBRANCH   1   6
TORSDOF 2
