REMARK  3 active torsions:
REMARK  status: ('A' for Active; 'I' for Inactive)
REMARK    1  A    between atoms: C1_1  and  C2_2 
REMARK    2  A    between atoms: C4_4  and  O2_9 
REMARK    3  A    between atoms: C6_6  and  O1_8 
ROOT
ATOM      1  C2  <0> d          -0.130   3.801   0.023  0.00  0.00     0.036 A 
ATOM      2  C3  <0> d           1.106   3.189   0.008  0.00  0.00    -0.027 A 
ATOM      3  C4  <0> d           1.176   1.797   0.001  0.00  0.00     0.071 A 
ATOM      4  C5  <0> d          -0.013   1.076   0.008  0.00  0.00    -0.000 A 
ATOM      5  C6  <0> d          -1.217   1.763   0.017  0.00  0.00     0.164 A 
ATOM      6  N1  <0> d          -1.240   3.086   0.030  0.00  0.00    -0.230 NA
ATOM      7  H4  <0> d           2.009   3.782   0.002  0.00  0.00     0.090 H 
ATOM      8  H5  <0> d           0.002  -0.004   0.002  0.00  0.00     0.094 H 
ENDROOT
BRANCH   1   9
ATOM      9  C1  <0> d          -0.214   5.306   0.031  0.00  0.00    -0.035 C 
ATOM     10  H1  <0> d          -0.244   5.673  -0.995  0.00  0.00     0.035 H 
ATOM     11  H2  <0> d          -1.119   5.616   0.555  0.00  0.00     0.035 H 
ATOM     12  H3  <0> d           0.658   5.716   0.539  0.00  0.00     0.035 H 
ENDBRANCH   1   9
BRANCH   5  13
ATOM     13  O1  <0> d          -2.384   1.071   0.019  0.00  0.00    -0.345 OA
ATOM     14  H6  <0> d          -2.718   0.866   0.903  0.00  0.00     0.219 HD
ENDBRANCH   5  13
BRANCH   3  15
ATOM     15  O2  <0> d           2.375   1.161  -0.013  0.00  0.00    -0.361 OA
ATOM     16  H7  <0> d           2.715   0.981  -0.901  0.00  0.00     0.217 HD
ENDBRANCH   3  15
TORSDOF 3
