REMARK  1 active torsions:
REMARK  status: ('A' for Active; 'I' for Inactive)
REMARK    1  A    between atoms: C1_1  and  C2_2 
ROOT
ATOM      1  C2  <0> d          -1.226   1.750   0.017  0.00  0.00    -0.057 A 
ATOM      2  C3  <0> d          -1.266   3.127   0.031  0.00  0.00    -0.051 A 
ATOM      3  C4  <0> d          -0.081   3.856   0.024  0.00  0.00     0.045 A 
ATOM      4  C5  <0> d           1.150   3.175   0.008  0.00  0.00     0.030 A 
ATOM      5  C6  <0> d           2.186   4.211   0.004  0.00  0.00    -0.053 A 
ATOM      6  C7  <0> d           1.556   5.396   0.017  0.00  0.00    -0.022 A 
ATOM      7  N1  <0> d           0.201   5.204   0.029  0.00  0.00    -0.365 N 
ATOM      8  H1  <0> d          -0.462   5.912   0.038  0.00  0.00     0.165 HD
ATOM      9  C8  <0> d           1.174   1.778   0.000  0.00  0.00     0.129 A 
ATOM     10  C9  <0> d          -0.013   1.076   0.008  0.00  0.00    -0.039 A 
ATOM     11  F1  <0> d           2.353   1.119  -0.014  0.00  0.00    -0.205 F 
ATOM     12  H5  <0> d          -2.216   3.640   0.042  0.00  0.00     0.087 H 
ATOM     13  H6  <0> d           3.254   4.051  -0.007  0.00  0.00     0.087 H 
ATOM     14  H7  <0> d           2.046   6.359   0.017  0.00  0.00     0.111 H 
ATOM     15  H8  <0> d           0.002  -0.004   0.002  0.00  0.00     0.089 H 
ENDROOT
BRANCH   1  16
ATOM     16  C1  <0> d          -2.514   0.967   0.019  0.00  0.00    -0.051 C 
ATOM     17  H2  <0> d          -2.819   0.772   1.047  0.00  0.00     0.033 H 
ATOM     18  H3  <0> d          -3.289   1.541  -0.488  0.00  0.00     0.033 H 
ATOM     19  H4  <0> d          -2.364   0.020  -0.500  0.00  0.00     0.033 H 
ENDBRANCH   1  16
TORSDOF 1
