REMARK  3 active torsions:
REMARK  status: ('A' for Active; 'I' for Inactive)
REMARK    1  A    between atoms: C1_1  and  C2_2 
REMARK    2  A    between atoms: C2_2  and  C3_3 
REMARK    3  A    between atoms: C6_9  and  C7_11 
ROOT
ATOM      1  C3  <0> d           0.711   3.209   0.448  0.00  0.00    -0.017 C 
ATOM      2  H1  <0> d           0.816   3.331   1.526  0.00  0.00     0.044 H 
ATOM      3  C4  <0> d          -0.779   3.180   0.037  0.00  0.00     0.015 C 
ATOM      4  C5  <0> d          -1.131   1.709   0.016  0.00  0.00     0.218 C 
ATOM      5  O1  <0> d          -2.260   1.265   0.011  0.00  0.00    -0.274 OA
ATOM      6  N1  <0> d          -0.011   0.966   0.007  0.00  0.00    -0.346 N 
ATOM      7  C6  <0> d           1.189   1.810   0.000  0.00  0.00     0.100 C 
ATOM      8  H2  <0> d           1.929   1.421   0.700  0.00  0.00     0.090 H 
ATOM      9  H8  <0> d          -1.387   3.711   0.769  0.00  0.00     0.047 H 
ATOM     10  H9  <0> d          -0.909   3.614  -0.955  0.00  0.00     0.047 H 
ATOM     11  H10 <0> d           0.002  -0.004   0.002  0.00  0.00     0.163 HD
ENDROOT
BRANCH   1  12
ATOM     12  C2  <0> d           1.465   4.311  -0.300  0.00  0.00    -0.062 C 
ATOM     13  H6  <0> d           2.538   4.171  -0.169  0.00  0.00     0.033 H 
ATOM     14  H7  <0> d           1.219   4.262  -1.361  0.00  0.00     0.033 H 
BRANCH  12  15
ATOM     15  C1  <0> d           1.056   5.676   0.256  0.00  0.00    -0.076 C 
ATOM     16  H3  <0> d           1.302   5.725   1.317  0.00  0.00     0.027 H 
ATOM     17  H4  <0> d           1.593   6.461  -0.278  0.00  0.00     0.027 H 
ATOM     18  H5  <0> d          -0.017   5.816   0.124  0.00  0.00     0.027 H 
ENDBRANCH  12  15
ENDBRANCH   1  12
BRANCH   7  19
ATOM     19  C7  <0> d           1.771   1.878  -1.388  0.00  0.00     0.197 C 
ATOM     20  O2  <0> d           1.093   1.579  -2.342  0.00  0.00    -0.646 OA
ATOM     21  O3  <0> d           3.043   2.269  -1.564  0.00  0.00    -0.646 OA
ENDBRANCH   7  19
TORSDOF 3
