REMARK  3 active torsions:
REMARK  status: ('A' for Active; 'I' for Inactive)
REMARK    1  A    between atoms: C1_1  and  O1_2 
REMARK    2  A    between atoms: O1_2  and  C2_3 
REMARK    3  A    between atoms: C5_7  and  N3_9 
ROOT
ATOM      1  C2  <0> d          -1.971   1.164   1.348  0.00  0.00     0.269 A 
ATOM      2  N1  <0> d          -2.539   0.402   0.427  0.00  0.00    -0.219 NA
ATOM      3  C3  <0> d          -3.796   0.003   0.554  0.00  0.00     0.010 A 
ATOM      4  C4  <0> d          -4.522   0.400   1.660  0.00  0.00    -0.022 A 
ATOM      5  C5  <0> d          -3.897   1.209   2.611  0.00  0.00     0.127 A 
ATOM      6  N2  <0> d          -2.631   1.567   2.421  0.00  0.00    -0.190 NA
ATOM      7  H4  <0> d          -4.249  -0.623  -0.200  0.00  0.00     0.115 H 
ATOM      8  H5  <0> d          -5.550   0.093   1.786  0.00  0.00     0.091 H 
ENDROOT
BRANCH   1   9
ATOM      9  O1  <0> d          -0.682   1.547   1.184  0.00  0.00    -0.324 OA
BRANCH   9  10
ATOM     10  C1  <0> d          -0.013   1.086   0.008  0.00  0.00     0.013 C 
ATOM     11  H1  <0> d           0.002  -0.004   0.002  0.00  0.00     0.067 H 
ATOM     12  H2  <0> d           1.010   1.463   0.000  0.00  0.00     0.067 H 
ATOM     13  H3  <0> d          -0.540   1.447  -0.875  0.00  0.00     0.067 H 
ENDBRANCH   9  10
ENDBRANCH   1   9
BRANCH   5  14
ATOM     14  N3  <0> d          -4.585   1.632   3.736  0.00  0.00    -0.384 N 
ATOM     15  H6  <0> d          -4.144   2.194   4.393  0.00  0.00     0.157 HD
ATOM     16  H7  <0> d          -5.509   1.367   3.868  0.00  0.00     0.157 HD
ENDBRANCH   5  14
TORSDOF 3
