REMARK  6 active torsions:
REMARK  status: ('A' for Active; 'I' for Inactive)
REMARK    1  A    between atoms: C1_1  and  C2_2 
REMARK    2  A    between atoms: C2_2  and  C3_3 
REMARK    3  A    between atoms: C3_3  and  N1_4 
REMARK    4  A    between atoms: N1_4  and  S1_5 
REMARK    5  A    between atoms: S1_5  and  N2_8 
REMARK    6  A    between atoms: N2_8  and  C4_9 
ROOT
ATOM      1  N1  <0> d          -1.413  -1.998   0.005  0.00  0.00    -0.303 N 
ATOM      2  H8  <0> d          -0.598  -2.471  -0.223  0.00  0.00     0.173 HD
ENDROOT
BRANCH   1   3
ATOM      3  C3  <0> d          -1.433  -0.534   0.013  0.00  0.00     0.004 C 
ATOM      4  H6  <0> d          -1.944  -0.182   0.910  0.00  0.00     0.065 H 
ATOM      5  H7  <0> d          -1.960  -0.173  -0.870  0.00  0.00     0.065 H 
BRANCH   3   6
ATOM      6  C2  <0> d           0.002  -0.004   0.002  0.00  0.00    -0.053 C 
ATOM      7  H4  <0> d           0.512  -0.356  -0.895  0.00  0.00     0.034 H 
ATOM      8  H5  <0> d           0.529  -0.365   0.885  0.00  0.00     0.034 H 
BRANCH   6   9
ATOM      9  C1  <0> d          -0.019   1.526   0.010  0.00  0.00    -0.075 C 
ATOM     10  H1  <0> d           1.004   1.903   0.003  0.00  0.00     0.027 H 
ATOM     11  H2  <0> d          -0.546   1.887  -0.873  0.00  0.00     0.027 H 
ATOM     12  H3  <0> d          -0.529   1.877   0.907  0.00  0.00     0.027 H 
ENDBRANCH   6   9
ENDBRANCH   3   6
ENDBRANCH   1   3
BRANCH   1  13
ATOM     13  S1  <0> d          -2.784  -2.847   0.385  0.00  0.00     0.314 S 
ATOM     14  O1  <0> d          -2.455  -4.224   0.263  0.00  0.00    -0.183 OA
ATOM     15  O2  <0> d          -3.287  -2.288   1.590  0.00  0.00    -0.183 OA
BRANCH  13  16
ATOM     16  N2  <0> d          -3.903  -2.522  -0.792  0.00  0.00    -0.307 N 
ATOM     17  H9  <0> d          -4.718  -2.046  -0.567  0.00  0.00     0.173 HD
BRANCH  16  18
ATOM     18  C4  <0> d          -3.662  -2.951  -2.171  0.00  0.00    -0.010 C 
ATOM     19  H10 <0> d          -4.502  -2.651  -2.798  0.00  0.00     0.057 H 
ATOM     20  H11 <0> d          -2.748  -2.487  -2.542  0.00  0.00     0.057 H 
ATOM     21  H12 <0> d          -3.557  -4.036  -2.201  0.00  0.00     0.057 H 
ENDBRANCH  16  18
ENDBRANCH  13  16
ENDBRANCH   1  13
TORSDOF 6
