REMARK  5 active torsions:
REMARK  status: ('A' for Active; 'I' for Inactive)
REMARK    1  A    between atoms: C1_1  and  C2_2 
REMARK    2  A    between atoms: C2_2  and  C3_3 
REMARK    3  A    between atoms: C8_9  and  C9_10 
REMARK    4  A    between atoms: C8_9  and  O1_12 
REMARK    5  A    between atoms: C9_10  and  C10_11 
ROOT
ATOM      1  C3  <0> d           0.011   1.072   2.506  0.00  0.00    -0.025 C 
ATOM      2  H1  <0> d           0.104  -0.013   2.456  0.00  0.00     0.044 H 
ATOM      3  C4  <0> d           1.405   1.701   2.561  0.00  0.00    -0.059 C 
ATOM      4  C5  <0> d           2.145   1.194   3.800  0.00  0.00    -0.065 C 
ATOM      5  C6  <0> d           1.361   1.582   5.056  0.00  0.00    -0.062 C 
ATOM      6  C7  <0> d          -0.033   0.953   5.002  0.00  0.00    -0.036 C 
ATOM      7  C8  <0> d          -0.772   1.460   3.762  0.00  0.00     0.061 C 
ATOM      8  H7  <0> d           1.963   1.425   1.666  0.00  0.00     0.033 H 
ATOM      9  H8  <0> d           1.312   2.786   2.611  0.00  0.00     0.033 H 
ATOM     10  H9  <0> d           3.138   1.642   3.839  0.00  0.00     0.033 H 
ATOM     11  H10 <0> d           2.237   0.109   3.750  0.00  0.00     0.033 H 
ATOM     12  H11 <0> d           1.269   2.667   5.106  0.00  0.00     0.033 H 
ATOM     13  H12 <0> d           1.888   1.220   5.939  0.00  0.00     0.033 H 
ATOM     14  H13 <0> d          -0.591   1.229   5.896  0.00  0.00     0.037 H 
ATOM     15  H14 <0> d           0.060  -0.132   4.951  0.00  0.00     0.037 H 
ENDROOT
BRANCH   7  16
ATOM     16  C9  <0> d          -0.902   2.982   3.833  0.00  0.00    -0.039 C 
ATOM     17  H15 <0> d           0.088   3.434   3.782  0.00  0.00     0.036 H 
ATOM     18  H16 <0> d          -1.506   3.335   2.996  0.00  0.00     0.036 H 
BRANCH  16  19
ATOM     19  C10 <0> d          -1.576   3.376   5.149  0.00  0.00    -0.074 C 
ATOM     20  H17 <0> d          -2.567   2.925   5.200  0.00  0.00     0.027 H 
ATOM     21  H18 <0> d          -0.973   3.024   5.986  0.00  0.00     0.027 H 
ATOM     22  H19 <0> d          -1.668   4.461   5.199  0.00  0.00     0.027 H 
ENDBRANCH  16  19
ENDBRANCH   7  16
BRANCH   7  23
ATOM     23  O1  <0> d          -2.074   0.872   3.711  0.00  0.00    -0.389 OA
ATOM     24  H20 <0> d          -2.628   1.076   4.477  0.00  0.00     0.210 HD
ENDBRANCH   7  23
BRANCH   1  25
ATOM     25  C2  <0> d          -0.729   1.579   1.267  0.00  0.00    -0.062 C 
ATOM     26  H5  <0> d          -0.744   2.669   1.273  0.00  0.00     0.033 H 
ATOM     27  H6  <0> d          -1.751   1.202   1.275  0.00  0.00     0.033 H 
BRANCH  25  28
ATOM     28  C1  <0> d          -0.013   1.086   0.008  0.00  0.00    -0.076 C 
ATOM     29  H2  <0> d           0.002  -0.004   0.002  0.00  0.00     0.027 H 
ATOM     30  H3  <0> d           1.010   1.463   0.000  0.00  0.00     0.027 H 
ATOM     31  H4  <0> d          -0.540   1.447  -0.875  0.00  0.00     0.027 H 
ENDBRANCH  25  28
ENDBRANCH   1  25
TORSDOF 5
