REMARK  5 active torsions:
REMARK  status: ('A' for Active; 'I' for Inactive)
REMARK    1  A    between atoms: C1_1  and  C2_2 
REMARK    2  A    between atoms: C2_2  and  C3_4 
REMARK    3  A    between atoms: C2_2  and  C5_7 
REMARK    4  A    between atoms: C3_4  and  C4_5 
REMARK    5  A    between atoms: C4_5  and  O1_6 
ROOT
ATOM      1  C2  <0> d           2.534   3.726  -0.002  0.00  0.00    -0.030 C 
ATOM      2  H1  <0> d           3.103   3.348  -0.851  0.00  0.00     0.046 H 
ENDROOT
BRANCH   1   3
ATOM      3  C1  <0> d           3.265   3.380   1.296  0.00  0.00    -0.069 C 
ATOM      4  H2  <0> d           3.365   2.297   1.379  0.00  0.00     0.028 H 
ATOM      5  H3  <0> d           4.255   3.837   1.290  0.00  0.00     0.028 H 
ATOM      6  H4  <0> d           2.696   3.758   2.146  0.00  0.00     0.028 H 
ENDBRANCH   1   3
BRANCH   1   7
ATOM      7  C3  <0> d           1.145   3.085   0.008  0.00  0.00    -0.039 C 
ATOM      8  H5  <0> d           0.591   3.404  -0.875  0.00  0.00     0.037 H 
ATOM      9  H6  <0> d           0.608   3.395   0.904  0.00  0.00     0.037 H 
BRANCH   7  10
ATOM     10  C4  <0> d           1.286   1.562  -0.002  0.00  0.00     0.017 C 
ATOM     11  H7  <0> d           1.840   1.243   0.881  0.00  0.00     0.074 H 
ATOM     12  H8  <0> d           1.823   1.252  -0.899  0.00  0.00     0.074 H 
BRANCH  10  13
ATOM     13  O1  <0> d          -0.011   0.963   0.007  0.00  0.00    -0.401 OA
ATOM     14  H9  <0> d           0.002  -0.004   0.002  0.00  0.00     0.209 HD
ENDBRANCH  10  13
ENDBRANCH   7  10
ENDBRANCH   1   7
BRANCH   1  15
ATOM     15  C5  <0> d           2.396   5.223  -0.117  0.00  0.00    -0.052 A 
ATOM     16  C9  <0> d           2.951   5.907  -1.187  0.00  0.00    -0.060 A 
ATOM     17  C8  <0> d           2.804   7.279  -1.259  0.00  0.00     0.002 A 
ATOM     18  H13 <0> d           3.493   5.374  -1.955  0.00  0.00     0.086 H 
ATOM     19  N1  <0> d           2.144   7.936  -0.325  0.00  0.00    -0.273 NA
ATOM     20  H12 <0> d           3.233   7.820  -2.089  0.00  0.00     0.114 H 
ATOM     21  C7  <0> d           1.602   7.319   0.707  0.00  0.00     0.002 A 
ATOM     22  C6  <0> d           1.705   5.947   0.843  0.00  0.00    -0.060 A 
ATOM     23  H11 <0> d           1.070   7.891   1.452  0.00  0.00     0.114 H 
ATOM     24  H10 <0> d           1.256   5.446   1.688  0.00  0.00     0.086 H 
ENDBRANCH   1  15
TORSDOF 5
