REMARK  1 active torsions:
REMARK  status: ('A' for Active; 'I' for Inactive)
REMARK    1  A    between atoms: C1_1  and  C2_2 
ROOT
ATOM      1  C2  <0> d           0.002  -0.004   0.002  0.00  0.00    -0.062 C 
ATOM      2  C3  <0> d           0.006  -0.694  -1.210  0.00  0.00    -0.077 C 
ATOM      3  C4  <0> d           0.025  -2.088  -1.220  0.00  0.00    -0.083 C 
ATOM      4  C5  <0> d          -1.099  -2.805  -0.816  0.00  0.00    -0.083 C 
ATOM      5  C6  <0> d          -2.246  -2.131  -0.399  0.00  0.00    -0.083 C 
ATOM      6  C7  <0> d          -2.250  -1.441   0.812  0.00  0.00    -0.083 C 
ATOM      7  C8  <0> d          -1.107  -1.424   1.610  0.00  0.00    -0.083 C 
ATOM      8  C9  <0> d           0.023  -0.707   1.206  0.00  0.00    -0.077 C 
ATOM      9  H4  <0> d          -0.007  -0.147  -2.141  0.00  0.00     0.084 H 
ATOM     10  H5  <0> d           0.913  -2.612  -1.543  0.00  0.00     0.083 H 
ATOM     11  H6  <0> d          -1.082  -3.885  -0.825  0.00  0.00     0.083 H 
ATOM     12  H7  <0> d          -3.133  -2.143  -1.016  0.00  0.00     0.083 H 
ATOM     13  H8  <0> d          -3.139  -0.918   1.133  0.00  0.00     0.083 H 
ATOM     14  H9  <0> d          -1.092  -1.967   2.544  0.00  0.00     0.083 H 
ATOM     15  H10 <0> d           0.910  -0.695   1.822  0.00  0.00     0.084 H 
ENDROOT
BRANCH   1  16
ATOM     16  C1  <0> d          -0.018   1.503   0.010  0.00  0.00    -0.051 C 
ATOM     17  H1  <0> d           1.004   1.880   0.003  0.00  0.00     0.033 H 
ATOM     18  H2  <0> d          -0.545   1.864  -0.873  0.00  0.00     0.033 H 
ATOM     19  H3  <0> d          -0.529   1.854   0.907  0.00  0.00     0.033 H 
ENDBRANCH   1  16
TORSDOF 1
