REMARK  4 active torsions:
REMARK  status: ('A' for Active; 'I' for Inactive)
REMARK    1  A    between atoms: C1_1  and  C2_2 
REMARK    2  A    between atoms: C2_2  and  C3_3 
REMARK    3  A    between atoms: C3_3  and  C4_4 
REMARK    4  A    between atoms: C5_5  and  C8_12 
ROOT
ATOM      1  C4  <0> d           0.000   1.080   2.488  0.00  0.00     0.034 A 
ATOM      2  C5  <0> d           0.993   1.810   3.046  0.00  0.00     0.043 A 
ATOM      3  N1  <0> d           1.631   1.330   4.149  0.00  0.00    -0.248 NA
ATOM      4  H1  <0> d           0.068  -1.550   4.616  0.00  0.00     0.169 HD
ATOM      5  C6  <0> d           1.283   0.144   4.682  0.00  0.00     0.067 A 
ATOM      6  N2  <0> d           0.329  -0.582   4.164  0.00  0.00    -0.318 N 
ATOM      7  C7  <0> d          -0.344  -0.161   3.078  0.00  0.00     0.254 A 
ATOM      8  O1  <0> d          -1.238  -0.843   2.603  0.00  0.00    -0.268 OA
ATOM      9  H9  <0> d           1.758  -0.199   5.492  0.00  0.00     0.143 H 
ENDROOT
BRANCH   1  10
ATOM     10  C3  <0> d          -0.725   1.576   1.263  0.00  0.00    -0.034 C 
ATOM     11  H7  <0> d          -0.738   2.676   1.266  0.00  0.00     0.040 H 
ATOM     12  H8  <0> d          -1.758   1.198   1.270  0.00  0.00     0.040 H 
BRANCH  10  13
ATOM     13  C2  <0> d          -0.006   1.077   0.008  0.00  0.00    -0.065 C 
ATOM     14  H5  <0> d           0.006  -0.023   0.006  0.00  0.00     0.032 H 
ATOM     15  H6  <0> d           1.026   1.456   0.002  0.00  0.00     0.032 H 
BRANCH  13  16
ATOM     16  C1  <0> d          -0.742   1.581  -1.235  0.00  0.00    -0.076 C 
ATOM     17  H2  <0> d          -0.226   1.222  -2.138  0.00  0.00     0.027 H 
ATOM     18  H3  <0> d          -0.755   2.681  -1.233  0.00  0.00     0.027 H 
ATOM     19  H4  <0> d          -1.775   1.203  -1.229  0.00  0.00     0.027 H 
ENDBRANCH  13  16
ENDBRANCH  10  13
ENDBRANCH   1  10
BRANCH   2  20
ATOM     20  C8  <0> d           1.388   3.139   2.454  0.00  0.00    -0.035 C 
ATOM     21  H10 <0> d           2.207   3.574   3.046  0.00  0.00     0.035 H 
ATOM     22  H11 <0> d           0.523   3.818   2.469  0.00  0.00     0.035 H 
ATOM     23  H12 <0> d           1.722   2.993   1.417  0.00  0.00     0.035 H 
ENDBRANCH   2  20
TORSDOF 4
