REMARK  0 active torsions:
REMARK  status: ('A' for Active; 'I' for Inactive)
ROOT
ATOM      1  C1  <0> d           3.306   4.740  -0.004  0.00  0.00    -0.065 C 
ATOM      2  C2  <0> d           2.800   4.019   1.247  0.00  0.00    -0.062 C 
ATOM      3  C3  <0> d           1.269   4.047   1.266  0.00  0.00    -0.034 C 
ATOM      4  C4  <0> d           0.732   3.363   0.013  0.00  0.00     0.088 A 
ATOM      5  C5  <0> d           1.245   4.061  -1.242  0.00  0.00    -0.034 C 
ATOM      6  C6  <0> d           2.776   4.033  -1.252  0.00  0.00    -0.062 C 
ATOM      7  C7  <0> d          -0.805   3.359   0.028  0.00  0.00     0.027 A 
ATOM      8  N1  <0> d          -1.147   1.927   0.018  0.00  0.00    -0.334 N 
ATOM      9  C8  <0> d          -0.014   1.211   0.009  0.00  0.00     0.361 A 
ATOM     10  O1  <0> d           0.002  -0.004   0.002  0.00  0.00    -0.238 OA
ATOM     11  O2  <0> d           1.097   1.957   0.002  0.00  0.00    -0.291 OA
ATOM     12  H1  <0> d           2.956   5.772   0.005  0.00  0.00     0.033 H 
ATOM     13  H2  <0> d           4.396   4.727  -0.014  0.00  0.00     0.033 H 
ATOM     14  H3  <0> d           3.183   4.520   2.136  0.00  0.00     0.033 H 
ATOM     15  H4  <0> d           3.144   2.985   1.236  0.00  0.00     0.033 H 
ATOM     16  H5  <0> d           0.925   5.081   1.292  0.00  0.00     0.037 H 
ATOM     17  H6  <0> d           0.907   3.522   2.150  0.00  0.00     0.037 H 
ATOM     18  H7  <0> d           0.867   3.545  -2.125  0.00  0.00     0.037 H 
ATOM     19  H8  <0> d           0.901   5.095  -1.250  0.00  0.00     0.037 H 
ATOM     20  H9  <0> d           3.143   4.544  -2.143  0.00  0.00     0.033 H 
ATOM     21  H10 <0> d           3.121   2.999  -1.259  0.00  0.00     0.033 H 
ATOM     22  H11 <0> d          -1.181   3.841   0.930  0.00  0.00     0.068 H 
ATOM     23  H12 <0> d          -1.198   3.853  -0.861  0.00  0.00     0.068 H 
ATOM     24  H13 <0> d          -2.046   1.562   0.019  0.00  0.00     0.164 HD
ENDROOT
TORSDOF 0
