REMARK  4 active torsions:
REMARK  status: ('A' for Active; 'I' for Inactive)
REMARK    1  A    between atoms: C1_1  and  C2_2 
REMARK    2  A    between atoms: C2_2  and  C3_3 
REMARK    3  A    between atoms: C2_2  and  C4_4 
REMARK    4  A    between atoms: C2_2  and  N1_5 
REMARK       I    between atoms: N1_5  and  C5_6 
REMARK       I    between atoms: C5_6  and  N2_8 
ROOT
ATOM      1  C2  <0> d          -2.484   3.687   0.034  0.00  0.00     0.023 C 
ENDROOT
BRANCH   1   2
ATOM      2  C1  <0> d          -3.275   3.299   1.285  0.00  0.00    -0.054 C 
ATOM      3  H1  <0> d          -2.703   3.566   2.174  0.00  0.00     0.030 H 
ATOM      4  H2  <0> d          -4.227   3.831   1.292  0.00  0.00     0.030 H 
ATOM      5  H3  <0> d          -3.460   2.225   1.280  0.00  0.00     0.030 H 
ENDBRANCH   1   2
BRANCH   1   6
ATOM      6  C3  <0> d          -2.225   5.194   0.041  0.00  0.00    -0.054 C 
ATOM      7  H4  <0> d          -1.661   5.470  -0.850  0.00  0.00     0.030 H 
ATOM      8  H5  <0> d          -3.176   5.727   0.048  0.00  0.00     0.030 H 
ATOM      9  H6  <0> d          -1.653   5.461   0.930  0.00  0.00     0.030 H 
ENDBRANCH   1   6
BRANCH   1  10
ATOM     10  C4  <0> d          -3.287   3.313  -1.214  0.00  0.00    -0.054 C 
ATOM     11  H7  <0> d          -3.472   2.239  -1.219  0.00  0.00     0.030 H 
ATOM     12  H8  <0> d          -4.239   3.845  -1.206  0.00  0.00     0.030 H 
ATOM     13  H9  <0> d          -2.724   3.589  -2.105  0.00  0.00     0.030 H 
ENDBRANCH   1  10
BRANCH   1  14
ATOM     14  N1  <0> d          -1.206   2.971   0.024  0.00  0.00    -0.335 N 
ATOM     15  C5  <0> d          -1.187   1.624   0.017  0.00  0.00     0.314 C 
ATOM     16  O1  <0> d          -2.232   1.002   0.018  0.00  0.00    -0.248 OA
ATOM     17  N2  <0> d          -0.011   0.966   0.007  0.00  0.00    -0.352 N 
ATOM     18  H11 <0> d           0.002  -0.004   0.002  0.00  0.00     0.160 HD
ATOM     19  H12 <0> d           0.822   1.462   0.002  0.00  0.00     0.160 HD
ATOM     20  H10 <0> d          -0.372   3.468   0.023  0.00  0.00     0.165 HD
ENDBRANCH   1  14
TORSDOF 4
