REMARK  2 active torsions:
REMARK  status: ('A' for Active; 'I' for Inactive)
REMARK    1  A    between atoms: C1_1  and  N1_2 
REMARK    2  A    between atoms: N1_2  and  C2_3 
ROOT
ATOM      1  C2  <0> d          -0.074   3.182  -1.450  0.00  0.00     0.237 C 
ATOM      2  N2  <0> d          -0.697   2.077  -1.154  0.00  0.00    -0.243 NA
ATOM      3  C3  <0> d          -0.018   1.490   0.010  0.00  0.00     0.062 C 
ATOM      4  H1  <0> d          -0.562   1.817   0.896  0.00  0.00     0.080 H 
ATOM      5  C4  <0> d           0.002  -0.004   0.002  0.00  0.00    -0.042 C 
ATOM      6  C5  <0> d           1.091  -0.642  -0.837  0.00  0.00    -0.063 C 
ATOM      7  C6  <0> d           2.438   0.025  -0.571  0.00  0.00    -0.063 C 
ATOM      8  C7  <0> d           2.327   1.505  -0.937  0.00  0.00    -0.038 C 
ATOM      9  C8  <0> d           1.340   2.197   0.001  0.00  0.00     0.070 C 
ATOM     10  H2  <0> d           1.747   2.328   1.004  0.00  0.00     0.087 H 
ATOM     11  O1  <0> d           0.966   3.452  -0.632  0.00  0.00    -0.313 OA
ATOM     12  H7  <0> d           0.117  -0.349   1.030  0.00  0.00     0.036 H 
ATOM     13  H8  <0> d          -0.961  -0.356  -0.368  0.00  0.00     0.036 H 
ATOM     14  H9  <0> d           1.159  -1.701  -0.590  0.00  0.00     0.033 H 
ATOM     15  H10 <0> d           0.839  -0.535  -1.892  0.00  0.00     0.033 H 
ATOM     16  H11 <0> d           2.694  -0.073   0.484  0.00  0.00     0.033 H 
ATOM     17  H12 <0> d           3.208  -0.450  -1.180  0.00  0.00     0.033 H 
ATOM     18  H13 <0> d           3.306   1.975  -0.845  0.00  0.00     0.036 H 
ATOM     19  H14 <0> d           1.976   1.598  -1.965  0.00  0.00     0.036 H 
ENDROOT
BRANCH   1  20
ATOM     20  N1  <0> d          -0.441   3.996  -2.494  0.00  0.00    -0.359 N 
ATOM     21  H6  <0> d           0.056   4.809  -2.674  0.00  0.00     0.162 HD
BRANCH  20  22
ATOM     22  C1  <0> d          -1.583   3.635  -3.338  0.00  0.00    -0.018 C 
ATOM     23  H3  <0> d          -2.482   3.572  -2.725  0.00  0.00     0.056 H 
ATOM     24  H4  <0> d          -1.721   4.394  -4.108  0.00  0.00     0.056 H 
ATOM     25  H5  <0> d          -1.397   2.670  -3.809  0.00  0.00     0.056 H 
ENDBRANCH  20  22
ENDBRANCH   1  20
TORSDOF 2
