REMARK  2 active torsions:
REMARK  status: ('A' for Active; 'I' for Inactive)
REMARK    1  A    between atoms: C1_1  and  O1_2 
REMARK    2  A    between atoms: O1_2  and  C2_3 
ROOT
ATOM      1  C2  <0> d          -0.017   1.434   0.010  0.00  0.00     0.233 C 
ATOM      2  O2  <0> d           1.364   1.855  -0.001  0.00  0.00    -0.337 OA
ATOM      3  C3  <0> d           1.991   0.911  -0.904  0.00  0.00     0.044 C 
ATOM      4  C4  <0> d           1.248  -0.407  -0.595  0.00  0.00     0.044 C 
ATOM      5  O3  <0> d           0.002  -0.004   0.002  0.00  0.00    -0.337 OA
ATOM      6  H4  <0> d          -0.530   1.806  -0.877  0.00  0.00     0.179 H 
ATOM      7  H5  <0> d           3.054   0.815  -0.684  0.00  0.00     0.077 H 
ATOM      8  H6  <0> d           1.835   1.208  -1.941  0.00  0.00     0.077 H 
ATOM      9  H7  <0> d           1.825  -1.012   0.104  0.00  0.00     0.077 H 
ATOM     10  H8  <0> d           1.064  -0.962  -1.515  0.00  0.00     0.077 H 
ENDROOT
BRANCH   1  11
ATOM     11  O1  <0> d          -0.667   1.910   1.190  0.00  0.00    -0.344 OA
BRANCH  11  12
ATOM     12  C1  <0> d          -0.038   1.498   2.406  0.00  0.00     0.009 C 
ATOM     13  H1  <0> d          -0.030   0.410   2.460  0.00  0.00     0.066 H 
ATOM     14  H2  <0> d           0.986   1.871   2.429  0.00  0.00     0.066 H 
ATOM     15  H3  <0> d          -0.591   1.901   3.255  0.00  0.00     0.066 H 
ENDBRANCH  11  12
ENDBRANCH   1  11
TORSDOF 2
