REMARK  3 active torsions:
REMARK  status: ('A' for Active; 'I' for Inactive)
REMARK    1  A    between atoms: C1_1  and  C2_2 
REMARK    2  A    between atoms: C5_6  and  C8_11 
REMARK    3  A    between atoms: C8_11  and  C10_13 
ROOT
ATOM      1  C2  <0> d           0.002  -0.004   0.002  0.00  0.00     0.016 C 
ATOM      2  H1  <0> d           0.512  -0.357  -0.894  0.00  0.00     0.057 H 
ATOM      3  C3  <0> d          -1.407  -0.527   0.019  0.00  0.00    -0.095 C 
ATOM      4  C4  <0> d          -1.836  -1.431   0.836  0.00  0.00    -0.098 C 
ATOM      5  C5  <0> d          -1.031  -2.094   1.910  0.00  0.00    -0.011 C 
ATOM      6  H2  <0> d          -1.265  -1.633   2.870  0.00  0.00     0.053 H 
ATOM      7  C6  <0> d           0.468  -1.948   1.634  0.00  0.00     0.001 C 
ATOM      8  C7  <0> d           0.728  -0.508   1.231  0.00  0.00     0.135 C 
ATOM      9  O1  <0> d           1.475   0.202   1.860  0.00  0.00    -0.297 OA
ATOM     10  H6  <0> d          -2.106  -0.121  -0.698  0.00  0.00     0.077 H 
ATOM     11  H7  <0> d          -2.868  -1.735   0.735  0.00  0.00     0.077 H 
ATOM     12  H8  <0> d           1.034  -2.187   2.534  0.00  0.00     0.045 H 
ATOM     13  H9  <0> d           0.761  -2.615   0.824  0.00  0.00     0.045 H 
ENDROOT
BRANCH   5  14
ATOM     14  C8  <0> d          -1.384  -3.558   1.963  0.00  0.00    -0.085 C 
ATOM     15  C9  <0> d          -1.877  -4.073   3.062  0.00  0.00    -0.119 C 
ATOM     16  H10 <0> d          -2.131  -5.122   3.099  0.00  0.00     0.067 H 
ATOM     17  H11 <0> d          -2.031  -3.449   3.930  0.00  0.00     0.067 H 
BRANCH  14  18
ATOM     18  C10 <0> d          -1.170  -4.429   0.752  0.00  0.00    -0.055 C 
ATOM     19  H12 <0> d          -0.756  -3.829  -0.059  0.00  0.00     0.033 H 
ATOM     20  H13 <0> d          -0.477  -5.232   1.000  0.00  0.00     0.033 H 
ATOM     21  H14 <0> d          -2.123  -4.855   0.438  0.00  0.00     0.033 H 
ENDBRANCH  14  18
ENDBRANCH   5  14
BRANCH   1  22
ATOM     22  C1  <0> d          -0.019   1.526   0.010  0.00  0.00    -0.063 C 
ATOM     23  H3  <0> d           1.004   1.903   0.003  0.00  0.00     0.028 H 
ATOM     24  H4  <0> d          -0.546   1.887  -0.873  0.00  0.00     0.028 H 
ATOM     25  H5  <0> d          -0.529   1.877   0.907  0.00  0.00     0.028 H 
ENDBRANCH   1  22
TORSDOF 3
