REMARK  3 active torsions:
REMARK  status: ('A' for Active; 'I' for Inactive)
REMARK    1  A    between atoms: C1_1  and  C2_2 
REMARK    2  A    between atoms: C2_2  and  N1_3 
REMARK    3  A    between atoms: C4_5  and  N2_10 
ROOT
ATOM      1  N1  <0> d           2.386   0.021  -0.021  0.00  0.00    -0.323 N 
ATOM      2  C3  <0> d           2.376   1.381  -0.013  0.00  0.00     0.008 A 
ATOM      3  C4  <0> d           1.201   2.063   0.002  0.00  0.00     0.041 A 
ATOM      4  C5  <0> d          -0.016   1.359   0.009  0.00  0.00    -0.051 A 
ATOM      5  C6  <0> d           0.002  -0.004   0.002  0.00  0.00    -0.015 A 
ATOM      6  C7  <0> d           1.235  -0.677  -0.013  0.00  0.00     0.247 A 
ATOM      7  O1  <0> d           1.262  -1.898  -0.021  0.00  0.00    -0.268 OA
ATOM      8  H6  <0> d           3.310   1.924  -0.018  0.00  0.00     0.115 H 
ATOM      9  H7  <0> d          -0.956   1.893   0.017  0.00  0.00     0.087 H 
ATOM     10  H8  <0> d          -0.923  -0.561   0.007  0.00  0.00     0.092 H 
ENDROOT
BRANCH   1  11
ATOM     11  C2  <0> d           3.666  -0.693  -0.037  0.00  0.00    -0.001 C 
ATOM     12  H4  <0> d           3.553  -1.659   0.478  0.00  0.00     0.064 H 
ATOM     13  H5  <0> d           4.428  -0.091   0.478  0.00  0.00     0.064 H 
BRANCH  11  14
ATOM     14  C1  <0> d           4.097  -0.934  -1.485  0.00  0.00    -0.061 C 
ATOM     15  H1  <0> d           5.057  -1.470  -1.497  0.00  0.00     0.029 H 
ATOM     16  H2  <0> d           4.210   0.032  -1.999  0.00  0.00     0.029 H 
ATOM     17  H3  <0> d           3.334  -1.537  -1.999  0.00  0.00     0.029 H 
ENDBRANCH  11  14
ENDBRANCH   1  11
BRANCH   3  18
ATOM     18  N2  <0> d           1.202   3.466   0.009  0.00  0.00    -0.398 N 
ATOM     19  H9  <0> d           0.250   4.017   0.020  0.00  0.00     0.156 HD
ATOM     20  H10 <0> d           2.155   4.016   0.002  0.00  0.00     0.156 HD
ENDBRANCH   3  18
TORSDOF 3
