REMARK  3 active torsions:
REMARK  status: ('A' for Active; 'I' for Inactive)
REMARK    1  A    between atoms: C1_1  and  C2_2 
REMARK    2  A    between atoms: C2_2  and  C3_3 
REMARK    3  A    between atoms: C5_5  and  N3_9 
ROOT
ATOM      1  C3  <0> d           0.731  -0.503   1.223  0.00  0.00     0.029 A 
ATOM      2  C4  <0> d           2.115  -0.660   1.343  0.00  0.00    -0.017 A 
ATOM      3  C5  <0> d           2.374  -1.131   2.594  0.00  0.00     0.115 A 
ATOM      4  N1  <0> d           1.189  -1.265   3.233  0.00  0.00    -0.286 N 
ATOM      5  H1  <0> d           1.063  -1.581   4.141  0.00  0.00     0.188 HD
ATOM      6  N2  <0> d           0.177  -0.859   2.354  0.00  0.00    -0.303 N 
ATOM      7  H7  <0> d           2.848  -0.445   0.580  0.00  0.00     0.092 H 
ATOM      8  H10 <0> d          -0.773  -0.847   2.549  0.00  0.00     0.186 HD
ENDROOT
BRANCH   1   9
ATOM      9  C2  <0> d           0.002  -0.004   0.002  0.00  0.00    -0.029 C 
ATOM     10  H5  <0> d          -1.020  -0.381   0.010  0.00  0.00     0.041 H 
ATOM     11  H6  <0> d           0.512  -0.356  -0.895  0.00  0.00     0.041 H 
BRANCH   9  12
ATOM     12  C1  <0> d          -0.019   1.526   0.010  0.00  0.00    -0.071 C 
ATOM     13  H2  <0> d           1.004   1.903   0.003  0.00  0.00     0.028 H 
ATOM     14  H3  <0> d          -0.546   1.887  -0.873  0.00  0.00     0.028 H 
ATOM     15  H4  <0> d          -0.529   1.877   0.907  0.00  0.00     0.028 H 
ENDBRANCH   9  12
ENDBRANCH   1   9
BRANCH   3  16
ATOM     16  N3  <0> d           3.629  -1.424   3.119  0.00  0.00    -0.384 N 
ATOM     17  H8  <0> d           4.423  -1.294   2.578  0.00  0.00     0.157 HD
ATOM     18  H9  <0> d           3.710  -1.757   4.027  0.00  0.00     0.157 HD
ENDBRANCH   3  16
TORSDOF 3
