REMARK  7 active torsions:
REMARK  status: ('A' for Active; 'I' for Inactive)
REMARK    1  A    between atoms: C1_1  and  C2_2 
REMARK    2  A    between atoms: C2_2  and  C3_3 
REMARK    3  A    between atoms: C4_4  and  C5_5 
REMARK    4  A    between atoms: C5_5  and  C6_6 
REMARK    5  A    between atoms: C6_6  and  O1_7 
REMARK    6  A    between atoms: O1_7  and  C7_8 
REMARK    7  A    between atoms: C7_8  and  C8_10 
ROOT
ATOM      1  C5  <0> d          -0.943  -0.764   1.921  0.00  0.00    -0.030 C 
ATOM      2  H8  <0> d          -1.874  -1.260   1.647  0.00  0.00     0.042 H 
ATOM      3  H9  <0> d          -0.208  -0.908   1.129  0.00  0.00     0.042 H 
ENDROOT
BRANCH   1   4
ATOM      4  C4  <0> d          -1.196   0.709   2.110  0.00  0.00    -0.105 C 
ATOM      5  C3  <0> d          -0.658   1.577   1.289  0.00  0.00    -0.107 C 
ATOM      6  H6  <0> d          -0.738   2.634   1.493  0.00  0.00     0.076 H 
ATOM      7  H7  <0> d          -1.821   1.050   2.923  0.00  0.00     0.076 H 
BRANCH   5   8
ATOM      8  C2  <0> d           0.070   1.099   0.059  0.00  0.00    -0.053 C 
ATOM      9  H4  <0> d          -0.068   0.024  -0.050  0.00  0.00     0.038 H 
ATOM     10  H5  <0> d           1.133   1.320   0.158  0.00  0.00     0.038 H 
BRANCH   8  11
ATOM     11  C1  <0> d          -0.486   1.814  -1.173  0.00  0.00    -0.073 C 
ATOM     12  H1  <0> d          -0.348   2.889  -1.064  0.00  0.00     0.027 H 
ATOM     13  H2  <0> d           0.041   1.468  -2.063  0.00  0.00     0.027 H 
ATOM     14  H3  <0> d          -1.549   1.593  -1.272  0.00  0.00     0.027 H 
ENDBRANCH   8  11
ENDBRANCH   5   8
ENDBRANCH   1   4
BRANCH   1  15
ATOM     15  C6  <0> d          -0.411  -1.362   3.225  0.00  0.00     0.032 C 
ATOM     16  H10 <0> d           0.520  -0.866   3.499  0.00  0.00     0.075 H 
ATOM     17  H11 <0> d          -1.147  -1.218   4.017  0.00  0.00     0.075 H 
BRANCH  15  18
ATOM     18  O1  <0> d          -0.168  -2.782   3.043  0.00  0.00    -0.322 OA
BRANCH  18  19
ATOM     19  C7  <0> d           0.304  -3.460   4.101  0.00  0.00     0.254 C 
ATOM     20  O2  <0> d           0.507  -2.886   5.144  0.00  0.00    -0.266 OA
BRANCH  19  21
ATOM     21  C8  <0> d           0.581  -4.937   3.987  0.00  0.00     0.004 C 
ATOM     22  H12 <0> d           0.340  -5.275   2.979  0.00  0.00     0.041 H 
ATOM     23  H13 <0> d           1.635  -5.126   4.190  0.00  0.00     0.041 H 
ATOM     24  H14 <0> d          -0.031  -5.478   4.708  0.00  0.00     0.041 H 
ENDBRANCH  19  21
ENDBRANCH  18  19
ENDBRANCH  15  18
ENDBRANCH   1  15
TORSDOF 7
