REMARK  3 active torsions:
REMARK  status: ('A' for Active; 'I' for Inactive)
REMARK    1  A    between atoms: C1_1  and  C2_2 
REMARK    2  A    between atoms: C5_5  and  C8_9 
REMARK    3  A    between atoms: C7_7  and  N1_8 
ROOT
ATOM      1  C2  <0> d          -3.720   3.294   0.037  0.00  0.00    -0.036 A 
ATOM      2  C3  <0> d          -2.531   3.999   0.036  0.00  0.00    -0.074 A 
ATOM      3  C4  <0> d          -1.325   3.328   0.032  0.00  0.00    -0.066 A 
ATOM      4  C5  <0> d          -1.304   1.932   0.019  0.00  0.00     0.043 A 
ATOM      5  C6  <0> d          -2.504   1.220   0.021  0.00  0.00    -0.041 A 
ATOM      6  C7  <0> d          -3.710   1.905   0.030  0.00  0.00     0.032 A 
ATOM      7  H4  <0> d          -2.546   5.079   0.042  0.00  0.00     0.084 H 
ATOM      8  H5  <0> d          -0.399   3.883   0.036  0.00  0.00     0.085 H 
ATOM      9  H6  <0> d          -2.494   0.140   0.015  0.00  0.00     0.088 H 
ENDROOT
BRANCH   1  10
ATOM     10  C1  <0> d          -5.032   4.035   0.047  0.00  0.00    -0.049 C 
ATOM     11  H1  <0> d          -5.344   4.208   1.077  0.00  0.00     0.033 H 
ATOM     12  H2  <0> d          -4.913   4.992  -0.462  0.00  0.00     0.033 H 
ATOM     13  H3  <0> d          -5.789   3.442  -0.467  0.00  0.00     0.033 H 
ENDBRANCH   1  10
BRANCH   6  14
ATOM     14  N1  <0> d          -4.915   1.197   0.031  0.00  0.00    -0.399 N 
ATOM     15  H7  <0> d          -4.907   0.227   0.026  0.00  0.00     0.156 HD
ATOM     16  H8  <0> d          -5.758   1.675   0.038  0.00  0.00     0.156 HD
ENDBRANCH   6  14
BRANCH   4  17
ATOM     17  C8  <0> d          -0.014   1.210   0.009  0.00  0.00     0.209 C 
ATOM     18  O1  <0> d           0.002  -0.004   0.002  0.00  0.00    -0.644 OA
ATOM     19  O2  <0> d           1.143   1.900   0.001  0.00  0.00    -0.644 OA
ENDBRANCH   4  17
TORSDOF 3
