REMARK  3 active torsions:
REMARK  status: ('A' for Active; 'I' for Inactive)
REMARK    1  A    between atoms: C2_2  and  O4_12 
REMARK    2  A    between atoms: C3_4  and  O3_11 
REMARK    3  A    between atoms: C5_8  and  O2_10 
ROOT
ATOM      1  C1  <0> d           2.181   0.111  -1.207  0.00  0.00     0.007 C 
ATOM      2  C2  <0> d           0.772  -0.490  -1.230  0.00  0.00     0.066 C 
ATOM      3  H1  <0> d           0.839  -1.577  -1.212  0.00  0.00     0.087 H 
ATOM      4  C3  <0> d           0.002  -0.004   0.002  0.00  0.00     0.081 C 
ATOM      5  H2  <0> d           0.493  -0.367   0.905  0.00  0.00     0.090 H 
ATOM      6  C4  <0> d          -0.019   1.527   0.010  0.00  0.00     0.049 C 
ATOM      7  O1  <0> d           1.323   2.020   0.000  0.00  0.00    -0.359 OA
ATOM      8  C5  <0> d           2.076   1.637  -1.152  0.00  0.00     0.131 C 
ATOM      9  H3  <0> d           1.577   2.000  -2.050  0.00  0.00     0.128 H 
ATOM     10  H4  <0> d           2.716  -0.250  -0.328  0.00  0.00     0.044 H 
ATOM     11  H5  <0> d           2.718  -0.186  -2.108  0.00  0.00     0.044 H 
ATOM     12  H6  <0> d          -0.546   1.888  -0.873  0.00  0.00     0.078 H 
ATOM     13  H7  <0> d          -0.529   1.878   0.907  0.00  0.00     0.078 H 
ENDROOT
BRANCH   2  14
ATOM     14  O4  <0> d           0.093  -0.070  -2.415  0.00  0.00    -0.393 OA
ATOM     15  H10 <0> d           0.526  -0.343  -3.235  0.00  0.00     0.210 HD
ENDBRANCH   2  14
BRANCH   4  16
ATOM     16  O3  <0> d          -1.337  -0.500  -0.045  0.00  0.00    -0.391 OA
ATOM     17  H9  <0> d          -1.884  -0.226   0.704  0.00  0.00     0.210 HD
ENDBRANCH   4  16
BRANCH   8  18
ATOM     18  O2  <0> d           3.386   2.202  -1.074  0.00  0.00    -0.371 OA
ATOM     19  H8  <0> d           3.396   3.168  -1.036  0.00  0.00     0.212 HD
ENDBRANCH   8  18
TORSDOF 3
