REMARK  3 active torsions:
REMARK  status: ('A' for Active; 'I' for Inactive)
REMARK    1  A    between atoms: C1_1  and  N1_2 
REMARK    2  A    between atoms: C2_3  and  N4_10 
REMARK    3  A    between atoms: C5_8  and  N3_9 
ROOT
ATOM      1  N1  <0> d          -1.169  -0.715   0.015  0.00  0.00    -0.171 N 
ATOM      2  C2  <0> d           0.002  -0.004   0.002  0.00  0.00     0.122 A 
ATOM      3  C3  <0> d           1.188  -0.680  -0.013  0.00  0.00     0.028 A 
ATOM      4  C4  <0> d           1.168  -2.089  -0.020  0.00  0.00     0.287 A 
ATOM      5  O1  <0> d           2.216  -2.718  -0.033  0.00  0.00    -0.266 OA
ATOM      6  N2  <0> d          -0.008  -2.737  -0.012  0.00  0.00    -0.024 NA
ATOM      7  C5  <0> d          -1.145  -2.076   0.003  0.00  0.00     0.704 A 
ATOM      8  H4  <0> d           2.126  -0.144  -0.019  0.00  0.00     0.098 H 
ENDROOT
BRANCH   1   9
ATOM      9  C1  <0> d          -2.452  -0.008   0.037  0.00  0.00     0.004 C 
ATOM     10  H1  <0> d          -2.785   0.173  -0.985  0.00  0.00     0.058 H 
ATOM     11  H2  <0> d          -3.192  -0.614   0.559  0.00  0.00     0.058 H 
ATOM     12  H3  <0> d          -2.333   0.945   0.555  0.00  0.00     0.058 H 
ENDBRANCH   1   9
BRANCH   7  13
ATOM     13  N3  <0> d          -2.326  -2.769   0.011  0.00  0.00    -0.232 N 
ATOM     14  H5  <0> d          -2.319  -3.739   0.007  0.00  0.00     0.174 HD
ATOM     15  H6  <0> d          -3.170  -2.290   0.022  0.00  0.00     0.174 HD
ENDBRANCH   7  13
BRANCH   2  16
ATOM     16  N4  <0> d          -0.017   1.371   0.010  0.00  0.00    -0.385 N 
ATOM     17  H7  <0> d           0.817   1.868   0.004  0.00  0.00     0.157 HD
ATOM     18  H8  <0> d          -0.863   1.845   0.016  0.00  0.00     0.157 HD
ENDBRANCH   2  16
TORSDOF 3
