REMARK  5 active torsions:
REMARK  status: ('A' for Active; 'I' for Inactive)
REMARK    1  A    between atoms: C1_1  and  C2_2 
REMARK    2  A    between atoms: N2_5  and  C5_7 
REMARK    3  A    between atoms: C5_7  and  C6_8 
REMARK    4  A    between atoms: C6_8  and  C7_9 
REMARK    5  A    between atoms: C7_9  and  O1_10 
ROOT
ATOM      1  C2  <0> d          -1.116   1.859   0.017  0.00  0.00    -0.026 A 
ATOM      2  C3  <0> d          -0.697   3.193   0.025  0.00  0.00     0.029 A 
ATOM      3  N1  <0> d           0.611   3.211   0.013  0.00  0.00    -0.185 NA
ATOM      4  N2  <0> d           1.067   1.886   0.002  0.00  0.00    -0.281 N 
ATOM      5  C4  <0> d          -0.013   1.076   0.008  0.00  0.00     0.005 A 
ATOM      6  H4  <0> d          -1.342   4.059   0.035  0.00  0.00     0.118 H 
ATOM      7  H5  <0> d           0.002  -0.004   0.002  0.00  0.00     0.115 H 
ENDROOT
BRANCH   4   8
ATOM      8  C5  <0> d           2.467   1.456  -0.013  0.00  0.00     0.018 C 
ATOM      9  H6  <0> d           2.950   1.761   0.916  0.00  0.00     0.067 H 
ATOM     10  H7  <0> d           2.513   0.372  -0.107  0.00  0.00     0.067 H 
BRANCH   8  11
ATOM     11  C6  <0> d           3.187   2.103  -1.198  0.00  0.00    -0.029 C 
ATOM     12  H8  <0> d           2.704   1.799  -2.126  0.00  0.00     0.038 H 
ATOM     13  H9  <0> d           3.140   3.188  -1.103  0.00  0.00     0.038 H 
BRANCH  11  14
ATOM     14  C7  <0> d           4.649   1.655  -1.213  0.00  0.00     0.018 C 
ATOM     15  H10 <0> d           5.132   1.959  -0.284  0.00  0.00     0.074 H 
ATOM     16  H11 <0> d           4.696   0.570  -1.308  0.00  0.00     0.074 H 
BRANCH  14  17
ATOM     17  O1  <0> d           5.321   2.259  -2.320  0.00  0.00    -0.401 OA
ATOM     18  H12 <0> d           6.255   2.018  -2.392  0.00  0.00     0.209 HD
ENDBRANCH  14  17
ENDBRANCH  11  14
ENDBRANCH   8  11
ENDBRANCH   4   8
BRANCH   1  19
ATOM     19  C1  <0> d          -2.544   1.378   0.021  0.00  0.00    -0.049 C 
ATOM     20  H1  <0> d          -2.884   1.257   1.049  0.00  0.00     0.033 H 
ATOM     21  H2  <0> d          -3.175   2.108  -0.487  0.00  0.00     0.033 H 
ATOM     22  H3  <0> d          -2.607   0.421  -0.497  0.00  0.00     0.033 H 
ENDBRANCH   1  19
TORSDOF 5
