REMARK  0 active torsions:
REMARK  status: ('A' for Active; 'I' for Inactive)
ROOT
ATOM      1  C1  <0> d          -1.223   1.739   0.017  0.00  0.00    -0.063 A 
ATOM      2  C2  <0> d          -1.235   3.127   0.029  0.00  0.00    -0.045 A 
ATOM      3  C3  <0> d          -0.020   3.798   0.020  0.00  0.00     0.121 A 
ATOM      4  C4  <0> d           1.163   3.065   0.008  0.00  0.00     0.198 A 
ATOM      5  N1  <0> d           1.127   1.741   0.001  0.00  0.00    -0.235 NA
ATOM      6  C5  <0> d          -0.013   1.076   0.008  0.00  0.00     0.005 A 
ATOM      7  O1  <0> d           2.367   3.697   0.008  0.00  0.00    -0.330 OA
ATOM      8  C6  <0> d           2.369   5.079  -0.364  0.00  0.00     0.048 C 
ATOM      9  C7  <0> d           1.232   5.783   0.389  0.00  0.00     0.046 C 
ATOM     10  O2  <0> d          -0.003   5.158   0.022  0.00  0.00    -0.345 OA
ATOM     11  H1  <0> d          -2.150   1.185   0.020  0.00  0.00     0.085 H 
ATOM     12  H2  <0> d          -2.167   3.672   0.040  0.00  0.00     0.088 H 
ATOM     13  H3  <0> d           0.002  -0.004   0.002  0.00  0.00     0.114 H 
ATOM     14  H4  <0> d           3.335   5.530  -0.095  0.00  0.00     0.078 H 
ATOM     15  H5  <0> d           2.213   5.167  -1.450  0.00  0.00     0.078 H 
ATOM     16  H6  <0> d           1.397   5.688   1.473  0.00  0.00     0.078 H 
ATOM     17  H7  <0> d           1.214   6.848   0.113  0.00  0.00     0.078 H 
ENDROOT
TORSDOF 0
