REMARK  3 active torsions:
REMARK  status: ('A' for Active; 'I' for Inactive)
REMARK    1  A    between atoms: C1_1  and  O1_2 
REMARK    2  A    between atoms: O1_2  and  C2_3 
REMARK    3  A    between atoms: C6_8  and  O2_11 
ROOT
ATOM      1  C2  <0> d          -0.753   1.593  -1.232  0.00  0.00     0.040 C 
ATOM      2  H1  <0> d          -0.767   2.683  -1.226  0.00  0.00     0.083 H 
ATOM      3  C3  <0> d          -0.013   1.086   0.008  0.00  0.00    -0.041 C 
ATOM      4  C4  <0> d          -0.729   1.579   1.267  0.00  0.00    -0.060 C 
ATOM      5  C5  <0> d          -2.164   1.050   1.278  0.00  0.00    -0.041 C 
ATOM      6  C6  <0> d          -2.904   1.556   0.038  0.00  0.00     0.038 C 
ATOM      7  H2  <0> d          -2.919   2.646   0.044  0.00  0.00     0.083 H 
ATOM      8  C7  <0> d          -2.188   1.063  -1.221  0.00  0.00    -0.017 C 
ATOM      9  H6  <0> d           0.002  -0.004   0.002  0.00  0.00     0.036 H 
ATOM     10  H7  <0> d           1.010   1.463   0.000  0.00  0.00     0.036 H 
ATOM     11  H8  <0> d          -0.202   1.218   2.150  0.00  0.00     0.033 H 
ATOM     12  H9  <0> d          -0.744   2.669   1.273  0.00  0.00     0.033 H 
ATOM     13  H10 <0> d          -2.674   1.401   2.175  0.00  0.00     0.036 H 
ATOM     14  H11 <0> d          -2.149  -0.040   1.272  0.00  0.00     0.036 H 
ATOM     15  H12 <0> d          -2.715   1.424  -2.104  0.00  0.00     0.040 H 
ATOM     16  H13 <0> d          -2.173  -0.027  -1.227  0.00  0.00     0.040 H 
ENDROOT
BRANCH   1  17
ATOM     17  O1  <0> d          -0.084   1.132  -2.407  0.00  0.00    -0.391 OA
BRANCH  17  18
ATOM     18  C1  <0> d           0.927   2.020  -2.887  0.00  0.00     0.004 C 
ATOM     19  H3  <0> d           0.479   2.984  -3.128  0.00  0.00     0.066 H 
ATOM     20  H4  <0> d           1.687   2.156  -2.117  0.00  0.00     0.066 H 
ATOM     21  H5  <0> d           1.387   1.599  -3.781  0.00  0.00     0.066 H 
ENDBRANCH  17  18
ENDBRANCH   1  17
BRANCH   6  22
ATOM     22  O2  <0> d          -4.245   1.062   0.048  0.00  0.00    -0.395 OA
ATOM     23  H14 <0> d          -4.759   1.336   0.820  0.00  0.00     0.210 HD
ENDBRANCH   6  22
TORSDOF 3
