REMARK  3 active torsions:
REMARK  status: ('A' for Active; 'I' for Inactive)
REMARK    1  A    between atoms: C1_1  and  C2_2 
REMARK    2  A    between atoms: C4_4  and  C6_8 
REMARK    3  A    between atoms: C6_8  and  O1_9 
ROOT
ATOM      1  C2  <0> d          -1.116   1.851   0.017  0.00  0.00    -0.045 A 
ATOM      2  C3  <0> d          -0.687   3.194   0.025  0.00  0.00    -0.052 A 
ATOM      3  C4  <0> d           0.661   3.187   0.012  0.00  0.00     0.033 A 
ATOM      4  N1  <0> d           1.081   1.890   0.002  0.00  0.00    -0.367 N 
ATOM      5  H1  <0> d           2.005   1.595  -0.008  0.00  0.00     0.165 HD
ATOM      6  C5  <0> d          -0.013   1.076   0.008  0.00  0.00    -0.017 A 
ATOM      7  H5  <0> d          -1.322   4.067   0.036  0.00  0.00     0.087 H 
ATOM      8  H6  <0> d           0.002  -0.004   0.002  0.00  0.00     0.112 H 
ENDROOT
BRANCH   3   9
ATOM      9  C6  <0> d           1.550   4.404   0.011  0.00  0.00     0.054 C 
ATOM     10  H7  <0> d           2.188   4.389   0.895  0.00  0.00     0.083 H 
ATOM     11  H8  <0> d           2.172   4.399  -0.885  0.00  0.00     0.083 H 
BRANCH   9  12
ATOM     12  O1  <0> d           0.744   5.583   0.025  0.00  0.00    -0.395 OA
ATOM     13  H9  <0> d           1.251   6.407   0.025  0.00  0.00     0.209 HD
ENDBRANCH   9  12
ENDBRANCH   3   9
BRANCH   1  14
ATOM     14  C1  <0> d          -2.544   1.371   0.021  0.00  0.00    -0.050 C 
ATOM     15  H2  <0> d          -2.884   1.250   1.049  0.00  0.00     0.033 H 
ATOM     16  H3  <0> d          -3.174   2.101  -0.487  0.00  0.00     0.033 H 
ATOM     17  H4  <0> d          -2.607   0.414  -0.497  0.00  0.00     0.033 H 
ENDBRANCH   1  14
TORSDOF 3
