REMARK  2 active torsions:
REMARK  status: ('A' for Active; 'I' for Inactive)
REMARK    1  A    between atoms: C1_1  and  C2_2 
REMARK    2  A    between atoms: C8_8  and  O1_12 
ROOT
ATOM      1  C2  <0> d           0.002  -0.004   0.002  0.00  0.00    -0.045 A 
ATOM      2  C3  <0> d          -0.016   1.361   0.009  0.00  0.00    -0.076 A 
ATOM      3  C4  <0> d           1.169   2.085   0.002  0.00  0.00    -0.080 A 
ATOM      4  C5  <0> d           2.378   1.448  -0.013  0.00  0.00    -0.055 A 
ATOM      5  C6  <0> d           2.428   0.056  -0.021  0.00  0.00     0.065 A 
ATOM      6  C7  <0> d           1.226  -0.679  -0.013  0.00  0.00     0.052 A 
ATOM      7  C8  <0> d           1.609  -2.091  -0.025  0.00  0.00     0.194 A 
ATOM      8  N1  <0> d           2.913  -2.148  -0.037  0.00  0.00    -0.148 NA
ATOM      9  N2  <0> d           3.450  -0.857  -0.035  0.00  0.00    -0.275 N 
ATOM     10  H1  <0> d           4.425  -0.635  -0.043  0.00  0.00     0.189 HD
ATOM     11  H5  <0> d          -0.962   1.883   0.017  0.00  0.00     0.084 H 
ATOM     12  H6  <0> d           1.135   3.164   0.008  0.00  0.00     0.083 H 
ATOM     13  H7  <0> d           3.292   2.022  -0.019  0.00  0.00     0.087 H 
ENDROOT
BRANCH   1  14
ATOM     14  C1  <0> d          -1.290  -0.779   0.010  0.00  0.00    -0.050 C 
ATOM     15  H2  <0> d          -1.611  -0.961  -1.016  0.00  0.00     0.033 H 
ATOM     16  H3  <0> d          -1.139  -1.732   0.517  0.00  0.00     0.033 H 
ATOM     17  H4  <0> d          -2.055  -0.206   0.534  0.00  0.00     0.033 H 
ENDBRANCH   1  14
BRANCH   7  18
ATOM     18  O1  <0> d           0.759  -3.152  -0.021  0.00  0.00    -0.343 OA
ATOM     19  H8  <0> d           1.287  -4.001  -0.031  0.00  0.00     0.219 HD
ENDBRANCH   7  18
TORSDOF 2
