REMARK  5 active torsions:
REMARK  status: ('A' for Active; 'I' for Inactive)
REMARK    1  A    between atoms: C1_1  and  O1_2 
REMARK    2  A    between atoms: O1_2  and  C2_3 
REMARK    3  A    between atoms: C4_6  and  O4_13 
REMARK    4  A    between atoms: C5_8  and  C6_11 
REMARK    5  A    between atoms: C6_11  and  O3_12 
ROOT
ATOM      1  C2  <0> d          -0.013   1.086   0.008  0.00  0.00     0.133 C 
ATOM      2  H1  <0> d           0.002  -0.004   0.002  0.00  0.00     0.129 H 
ATOM      3  C3  <0> d          -0.753   1.593   1.264  0.00  0.00     0.007 C 
ATOM      4  C4  <0> d          -2.174   1.891   0.712  0.00  0.00     0.067 C 
ATOM      5  H2  <0> d          -2.662   2.677   1.288  0.00  0.00     0.087 H 
ATOM      6  C5  <0> d          -1.836   2.376  -0.721  0.00  0.00     0.086 C 
ATOM      7  H3  <0> d          -1.557   3.429  -0.707  0.00  0.00     0.090 H 
ATOM      8  O2  <0> d          -0.722   1.569  -1.139  0.00  0.00    -0.351 OA
ATOM      9  H7  <0> d          -0.790   0.819   2.031  0.00  0.00     0.044 H 
ATOM     10  H8  <0> d          -0.286   2.498   1.651  0.00  0.00     0.044 H 
ENDROOT
BRANCH   1  11
ATOM     11  O1  <0> d           1.325   1.589  -0.002  0.00  0.00    -0.366 OA
BRANCH  11  12
ATOM     12  C1  <0> d           2.127   1.086  -1.073  0.00  0.00     0.007 C 
ATOM     13  H4  <0> d           2.192   0.000  -0.999  0.00  0.00     0.066 H 
ATOM     14  H5  <0> d           1.673   1.359  -2.026  0.00  0.00     0.066 H 
ATOM     15  H6  <0> d           3.127   1.515  -1.010  0.00  0.00     0.066 H 
ENDBRANCH  11  12
ENDBRANCH   1  11
BRANCH   6  16
ATOM     16  C6  <0> d          -3.031   2.156  -1.651  0.00  0.00     0.043 C 
ATOM     17  H9  <0> d          -3.220   1.087  -1.754  0.00  0.00     0.078 H 
ATOM     18  H10 <0> d          -3.912   2.642  -1.233  0.00  0.00     0.078 H 
BRANCH  16  19
ATOM     19  O3  <0> d          -2.743   2.714  -2.935  0.00  0.00    -0.398 OA
ATOM     20  H11 <0> d          -3.458   2.611  -3.578  0.00  0.00     0.209 HD
ENDBRANCH  16  19
ENDBRANCH   6  16
BRANCH   4  21
ATOM     21  O4  <0> d          -2.973   0.707   0.680  0.00  0.00    -0.393 OA
ATOM     22  H12 <0> d          -3.119   0.308   1.549  0.00  0.00     0.210 HD
ENDBRANCH   4  21
TORSDOF 5
