REMARK  1 active torsions:
REMARK  status: ('A' for Active; 'I' for Inactive)
REMARK    1  A    between atoms: C2_3  and  N3_9 
ROOT
ATOM      1  C1  <0> d          -0.016   1.313   0.009  0.00  0.00     0.090 A 
ATOM      2  N1  <0> d           1.094   2.025   0.003  0.00  0.00    -0.222 NA
ATOM      3  C2  <0> d           2.283   1.429  -0.012  0.00  0.00     0.165 A 
ATOM      4  C3  <0> d           2.340   0.033  -0.020  0.00  0.00     0.202 A 
ATOM      5  C4  <0> d           1.149  -0.672  -0.012  0.00  0.00     0.169 A 
ATOM      6  N2  <0> d           0.002  -0.004   0.002  0.00  0.00    -0.227 NA
ATOM      7 Cl1  <0> d           1.155  -2.408  -0.022  0.00  0.00    -0.059 Cl
ATOM      8  F1  <0> d           3.527  -0.612  -0.035  0.00  0.00    -0.199 F 
ATOM      9  H1  <0> d          -0.967   1.825   0.026  0.00  0.00     0.146 H 
ENDROOT
BRANCH   3  10
ATOM     10  N3  <0> d           3.447   2.183  -0.019  0.00  0.00    -0.381 N 
ATOM     11  H2  <0> d           3.399   3.151  -0.014  0.00  0.00     0.157 HD
ATOM     12  H3  <0> d           4.311   1.740  -0.030  0.00  0.00     0.157 HD
ENDBRANCH   3  10
TORSDOF 1
