REMARK  2 active torsions:
REMARK  status: ('A' for Active; 'I' for Inactive)
REMARK    1  A    between atoms: C1_1  and  C2_2 
REMARK    2  A    between atoms: C2_2  and  N1_3 
ROOT
ATOM      1  N1  <0> d           0.711  -0.489   1.189  0.00  0.00    -0.308 N 
ATOM      2  C3  <0> d           2.040  -0.690   1.142  0.00  0.00     0.068 A 
ATOM      3  N2  <0> d           2.725  -1.121   2.167  0.00  0.00    -0.254 NA
ATOM      4  C4  <0> d           2.156  -1.395   3.338  0.00  0.00     0.029 A 
ATOM      5  C5  <0> d           0.784  -1.220   3.490  0.00  0.00     0.130 A 
ATOM      6  C6  <0> d           0.028  -0.730   2.330  0.00  0.00     0.270 A 
ATOM      7  O1  <0> d          -1.175  -0.549   2.394  0.00  0.00    -0.266 OA
ATOM      8  C7  <0> d           0.133  -1.504   4.733  0.00  0.00     0.106 C 
ATOM      9  N3  <0> d          -0.383  -1.729   5.720  0.00  0.00    -0.191 NA
ATOM     10  H6  <0> d           2.562  -0.486   0.219  0.00  0.00     0.143 H 
ATOM     11  H7  <0> d           2.755  -1.750   4.164  0.00  0.00     0.117 H 
ENDROOT
BRANCH   1  12
ATOM     12  C2  <0> d           0.002  -0.004   0.002  0.00  0.00     0.000 C 
ATOM     13  H4  <0> d          -1.020  -0.381   0.010  0.00  0.00     0.064 H 
ATOM     14  H5  <0> d           0.512  -0.356  -0.895  0.00  0.00     0.064 H 
BRANCH  12  15
ATOM     15  C1  <0> d          -0.019   1.526   0.010  0.00  0.00    -0.061 C 
ATOM     16  H1  <0> d           1.004   1.903   0.003  0.00  0.00     0.029 H 
ATOM     17  H2  <0> d          -0.546   1.887  -0.873  0.00  0.00     0.029 H 
ATOM     18  H3  <0> d          -0.529   1.877   0.907  0.00  0.00     0.029 H 
ENDBRANCH  12  15
ENDBRANCH   1  12
TORSDOF 2
