REMARK  3 active torsions:
REMARK  status: ('A' for Active; 'I' for Inactive)
REMARK    1  A    between atoms: C1_1  and  C2_2 
REMARK    2  A    between atoms: C2_2  and  C6_8 
REMARK    3  A    between atoms: C4_4  and  C5_6 
ROOT
ATOM      1  C2  <0> d           2.582   1.171  -0.016  0.00  0.00     0.059 A 
ATOM      2  C3  <0> d           2.128   1.918  -1.272  0.00  0.00    -0.034 A 
ATOM      3  C4  <0> d           1.280   1.975   0.000  0.00  0.00     0.048 A 
ATOM      4  H1  <0> d           1.274   2.911   0.559  0.00  0.00     0.058 H 
ATOM      5  H5  <0> d           1.750   1.323  -2.103  0.00  0.00     0.036 H 
ATOM      6  H6  <0> d           2.680   2.817  -1.550  0.00  0.00     0.036 H 
ENDROOT
BRANCH   1   7
ATOM      7  C1  <0> d           2.469  -0.355  -0.023  0.00  0.00    -0.059 C 
ATOM      8  H2  <0> d           1.921  -0.675  -0.909  0.00  0.00     0.029 H 
ATOM      9  H3  <0> d           3.467  -0.793  -0.035  0.00  0.00     0.029 H 
ATOM     10  H4  <0> d           1.938  -0.684   0.871  0.00  0.00     0.029 H 
ENDBRANCH   1   7
BRANCH   1  11
ATOM     11  C6  <0> d           3.757   1.733   0.742  0.00  0.00     0.182 C 
ATOM     12  O2  <0> d           3.649   2.781   1.333  0.00  0.00    -0.647 OA
ATOM     13  O4  <0> d           4.923   1.068   0.761  0.00  0.00    -0.647 OA
ENDBRANCH   1  11
BRANCH   3  14
ATOM     14  C5  <0> d          -0.014   1.204   0.009  0.00  0.00     0.178 C 
ATOM     15  O1  <0> d           0.002  -0.004   0.002  0.00  0.00    -0.648 OA
ATOM     16  O3  <0> d          -1.186   1.859   0.018  0.00  0.00    -0.648 OA
ENDBRANCH   3  14
TORSDOF 3
