REMARK  2 active torsions:
REMARK  status: ('A' for Active; 'I' for Inactive)
REMARK    1  A    between atoms: C1_1  and  C2_2 
REMARK    2  A    between atoms: C3_3  and  C4_7 
ROOT
ATOM      1  C2  <0> d           1.420   1.653  -0.003  0.00  0.00     0.095 A 
ATOM      2  C3  <0> d          -0.016   1.312   0.009  0.00  0.00     0.164 A 
ATOM      3  N1  <0> d           0.002  -0.004   0.002  0.00  0.00    -0.099 NA
ATOM      4  O1  <0> d           1.149  -0.385  -0.011  0.00  0.00    -0.106 OA
ATOM      5  N2  <0> d           1.994   0.479  -0.014  0.00  0.00    -0.108 NA
ENDROOT
BRANCH   2   6
ATOM      6  C4  <0> d          -1.184   2.223   0.020  0.00  0.00     0.229 A 
ATOM      7  N5  <0> d          -1.157   3.542   0.026  0.00  0.00    -0.104 NA
ATOM      8  N4  <0> d          -2.375   3.962   0.035  0.00  0.00    -0.021 NA
ATOM      9  N3  <0> d          -3.179   2.957   0.035  0.00  0.00    -0.021 NA
ATOM     10  N6  <0> d          -2.484   1.881   0.020  0.00  0.00    -0.104 NA
ENDBRANCH   2   6
BRANCH   1  11
ATOM     11  C1  <0> d           2.065   3.015  -0.002  0.00  0.00    -0.031 C 
ATOM     12  H1  <0> d           2.230   3.338   1.026  0.00  0.00     0.035 H 
ATOM     13  H2  <0> d           3.020   2.966  -0.525  0.00  0.00     0.035 H 
ATOM     14  H3  <0> d           1.411   3.727  -0.505  0.00  0.00     0.035 H 
ENDBRANCH   1  11
TORSDOF 2
