REMARK  3 active torsions:
REMARK  status: ('A' for Active; 'I' for Inactive)
REMARK    1  A    between atoms: C1_1  and  C2_2 
REMARK    2  A    between atoms: C7_8  and  O1_10 
REMARK    3  A    between atoms: O1_10  and  C8_11 
ROOT
ATOM      1  C8  <0> d           0.131  -0.889  -3.547  0.00  0.00     0.098 C 
ATOM      2  C9  <0> d          -0.613  -0.308  -4.677  0.00  0.00     0.085 C 
ATOM      3  N1  <0> d          -1.187   0.139  -5.549  0.00  0.00    -0.195 NA
ATOM      4  H14 <0> d           1.189  -1.003  -3.825  0.00  0.00     0.097 H 
ATOM      5  H15 <0> d          -0.291  -1.873  -3.297  0.00  0.00     0.097 H 
ENDROOT
BRANCH   1   6
ATOM      6  O1  <0> d           0.027  -0.024  -2.414  0.00  0.00    -0.372 OA
BRANCH   6   7
ATOM      7  C7  <0> d           0.718  -0.497  -1.257  0.00  0.00     0.043 C 
ATOM      8  C2  <0> d           0.002  -0.004   0.002  0.00  0.00    -0.032 C 
ATOM      9  H1  <0> d           0.534  -0.369   0.893  0.00  0.00     0.043 H 
ATOM     10  C3  <0> d          -0.019   1.526   0.010  0.00  0.00    -0.060 C 
ATOM     11  C4  <0> d           1.417   2.055  -0.000  0.00  0.00    -0.065 C 
ATOM     12  H6  <0> d          -0.551   1.890  -0.881  0.00  0.00     0.033 H 
ATOM     13  H7  <0> d          -0.534   1.881   0.915  0.00  0.00     0.033 H 
ATOM     14  C5  <0> d           2.133   1.562  -1.259  0.00  0.00    -0.063 C 
ATOM     15  H8  <0> d           1.402   3.155   0.006  0.00  0.00     0.033 H 
ATOM     16  H9  <0> d           1.949   1.691   0.891  0.00  0.00     0.033 H 
ATOM     17  C6  <0> d           2.154   0.032  -1.268  0.00  0.00    -0.040 C 
ATOM     18  H10 <0> d           1.601   1.926  -2.150  0.00  0.00     0.033 H 
ATOM     19  H11 <0> d           3.165   1.943  -1.267  0.00  0.00     0.033 H 
ATOM     20  H12 <0> d           2.668  -0.323  -2.173  0.00  0.00     0.036 H 
ATOM     21  H13 <0> d           2.686  -0.332  -0.376  0.00  0.00     0.036 H 
ATOM     22  H2  <0> d           0.698  -1.595  -1.323  0.00  0.00     0.083 H 
BRANCH   8  23
ATOM     23  C1  <0> d          -1.433  -0.534   0.013  0.00  0.00    -0.071 C 
ATOM     24  H3  <0> d          -1.948  -0.179   0.918  0.00  0.00     0.028 H 
ATOM     25  H4  <0> d          -1.418  -1.633   0.007  0.00  0.00     0.028 H 
ATOM     26  H5  <0> d          -1.965  -0.169  -0.878  0.00  0.00     0.028 H 
ENDBRANCH   8  23
ENDBRANCH   6   7
ENDBRANCH   1   6
TORSDOF 3
