REMARK  0 active torsions:
REMARK  status: ('A' for Active; 'I' for Inactive)
ROOT
ATOM      1  C1  <0> d          -0.013   1.076   0.008  0.00  0.00    -0.081 A 
ATOM      2  C2  <0> d          -1.220   1.749   0.017  0.00  0.00    -0.080 A 
ATOM      3  C3  <0> d          -1.248   3.132   0.031  0.00  0.00    -0.049 A 
ATOM      4  C4  <0> d          -0.062   3.845   0.023  0.00  0.00     0.096 A 
ATOM      5  C5  <0> d           1.156   3.166   0.008  0.00  0.00     0.068 A 
ATOM      6  C6  <0> d           1.177   1.781   0.000  0.00  0.00    -0.054 A 
ATOM      7  N1  <0> d           2.350   3.901  -0.001  0.00  0.00    -0.323 N 
ATOM      8  C7  <0> d           2.314   5.213   0.321  0.00  0.00     0.246 C 
ATOM      9  O1  <0> d           3.329   5.875   0.290  0.00  0.00    -0.271 OA
ATOM     10  C8  <0> d           1.006   5.849   0.718  0.00  0.00     0.100 C 
ATOM     11  O2  <0> d          -0.070   5.204   0.032  0.00  0.00    -0.340 OA
ATOM     12  H1  <0> d           0.002  -0.004   0.002  0.00  0.00     0.083 H 
ATOM     13  H2  <0> d          -2.146   1.192   0.018  0.00  0.00     0.083 H 
ATOM     14  H3  <0> d          -2.193   3.654   0.043  0.00  0.00     0.087 H 
ATOM     15  H4  <0> d           2.119   1.254  -0.011  0.00  0.00     0.087 H 
ATOM     16  H5  <0> d           3.189   3.474  -0.235  0.00  0.00     0.169 HD
ATOM     17  H6  <0> d           1.023   6.907   0.455  0.00  0.00     0.089 H 
ATOM     18  H7  <0> d           0.865   5.746   1.794  0.00  0.00     0.089 H 
ENDROOT
TORSDOF 0
