REMARK  3 active torsions:
REMARK  status: ('A' for Active; 'I' for Inactive)
REMARK    1  A    between atoms: C1_1  and  C2_2 
REMARK    2  A    between atoms: C2_2  and  C3_4 
REMARK    3  A    between atoms: C3_4  and  N1_5 
ROOT
ATOM      1  C2  <0> d           1.037   2.107   0.441  0.00  0.00     0.052 C 
ATOM      2  H1  <0> d           1.542   2.343  -0.507  0.00  0.00     0.065 H 
ATOM      3  C8  <0> d           2.069   1.657   1.389  0.00  0.00     0.065 C 
ATOM      4  N2  <0> d           2.866   1.310   2.121  0.00  0.00    -0.197 NA
ENDROOT
BRANCH   1   5
ATOM      5  C1  <0> d           0.338   3.348   1.000  0.00  0.00    -0.059 C 
ATOM      6  H2  <0> d           1.076   4.150   1.146  0.00  0.00     0.029 H 
ATOM      7  H3  <0> d          -0.132   3.101   1.963  0.00  0.00     0.029 H 
ATOM      8  H4  <0> d          -0.434   3.684   0.291  0.00  0.00     0.029 H 
ENDBRANCH   1   5
BRANCH   1   9
ATOM      9  C3  <0> d           0.010   0.991   0.238  0.00  0.00     0.128 C 
ATOM     10  H5  <0> d           0.523   0.077  -0.096  0.00  0.00     0.082 H 
ATOM     11  H6  <0> d          -0.510   0.793   1.187  0.00  0.00     0.082 H 
BRANCH   9  12
ATOM     12  N1  <0> d          -0.966   1.403  -0.779  0.00  0.00     0.093 N 
ATOM     13  C7  <0> d          -0.390   1.315  -2.129  0.00  0.00     0.133 C 
ATOM     14  C6  <0> d          -1.419   1.809  -3.150  0.00  0.00     0.044 C 
ATOM     15  H13 <0> d           0.513   1.940  -2.184  0.00  0.00     0.083 H 
ATOM     16  H14 <0> d          -0.127   0.269  -2.348  0.00  0.00     0.083 H 
ATOM     17  O1  <0> d          -2.618   1.040  -3.022  0.00  0.00    -0.388 OA
ATOM     18  H11 <0> d          -1.015   1.692  -4.166  0.00  0.00     0.077 H 
ATOM     19  H12 <0> d          -1.641   2.870  -2.964  0.00  0.00     0.077 H 
ATOM     20  C5  <0> d          -3.206   1.104  -1.719  0.00  0.00     0.044 C 
ATOM     21  C4  <0> d          -2.196   0.603  -0.684  0.00  0.00     0.133 C 
ATOM     22  H9  <0> d          -4.106   0.472  -1.690  0.00  0.00     0.077 H 
ATOM     23  H10 <0> d          -3.481   2.144  -1.490  0.00  0.00     0.077 H 
ATOM     24  H7  <0> d          -1.962  -0.454  -0.879  0.00  0.00     0.083 H 
ATOM     25  H8  <0> d          -2.622   0.704   0.325  0.00  0.00     0.083 H 
ENDBRANCH   9  12
ENDBRANCH   1   9
TORSDOF 3
