REMARK  1 active torsions:
REMARK  status: ('A' for Active; 'I' for Inactive)
REMARK    1  A    between atoms: C1_1  and  N1_2 
ROOT
ATOM      1  N1  <0> d          -0.953  -0.977   0.007  0.00  0.00    -0.256 N 
ATOM      2  C2  <0> d           0.002  -0.004   0.002  0.00  0.00     0.160 A 
ATOM      3  C3  <0> d           1.252  -0.664  -0.013  0.00  0.00     0.048 A 
ATOM      4  C4  <0> d           2.414   0.110  -0.021  0.00  0.00     0.019 A 
ATOM      5  N2  <0> d           2.295   1.426  -0.013  0.00  0.00    -0.253 NA
ATOM      6  C5  <0> d           1.108   2.008   0.002  0.00  0.00     0.088 A 
ATOM      7  N3  <0> d          -0.016   1.325   0.009  0.00  0.00    -0.222 NA
ATOM      8  C6  <0> d           0.962  -2.092  -0.018  0.00  0.00     0.037 A 
ATOM      9  N4  <0> d          -0.334  -2.231  -0.005  0.00  0.00    -0.183 NA
ATOM     10  H4  <0> d           3.388  -0.356  -0.033  0.00  0.00     0.116 H 
ATOM     11  H5  <0> d           1.059   3.087   0.009  0.00  0.00     0.146 H 
ATOM     12  H6  <0> d           1.689  -2.890  -0.028  0.00  0.00     0.118 H 
ENDROOT
BRANCH   1  13
ATOM     13  C1  <0> d          -2.399  -0.745   0.021  0.00  0.00     0.004 C 
ATOM     14  H1  <0> d          -2.768  -0.682  -1.002  0.00  0.00     0.059 H 
ATOM     15  H2  <0> d          -2.894  -1.568   0.536  0.00  0.00     0.059 H 
ATOM     16  H3  <0> d          -2.612   0.189   0.542  0.00  0.00     0.059 H 
ENDBRANCH   1  13
TORSDOF 1
