REMARK  2 active torsions:
REMARK  status: ('A' for Active; 'I' for Inactive)
REMARK    1  A    between atoms: C1_1  and  C2_2 
REMARK    2  A    between atoms: C5_7  and  C6_10 
ROOT
ATOM      1  C2  <0> d           0.002  -0.004   0.002  0.00  0.00     0.056 C 
ATOM      2  H1  <0> d           0.512  -0.356  -0.894  0.00  0.00     0.086 H 
ATOM      3  C3  <0> d          -1.434  -0.535   0.016  0.00  0.00     0.043 C 
ATOM      4  O1  <0> d          -1.406  -1.962   0.121  0.00  0.00    -0.386 OA
ATOM      5  C4  <0> d          -0.718  -2.437   1.282  0.00  0.00     0.043 C 
ATOM      6  C5  <0> d           0.718  -1.906   1.268  0.00  0.00     0.056 C 
ATOM      7  H2  <0> d           1.222  -2.193   2.191  0.00  0.00     0.086 H 
ATOM      8  O2  <0> d           0.691  -0.479   1.162  0.00  0.00    -0.377 OA
ATOM      9  H6  <0> d          -1.969  -0.118   0.870  0.00  0.00     0.078 H 
ATOM     10  H7  <0> d          -1.938  -0.248  -0.907  0.00  0.00     0.078 H 
ATOM     11  H8  <0> d          -1.228  -2.084   2.178  0.00  0.00     0.078 H 
ATOM     12  H9  <0> d          -0.703  -3.527   1.276  0.00  0.00     0.078 H 
ENDROOT
BRANCH   1  13
ATOM     13  C1  <0> d          -0.019   1.526   0.010  0.00  0.00    -0.050 C 
ATOM     14  H3  <0> d           1.004   1.903   0.003  0.00  0.00     0.031 H 
ATOM     15  H4  <0> d          -0.546   1.887  -0.873  0.00  0.00     0.031 H 
ATOM     16  H5  <0> d          -0.529   1.877   0.907  0.00  0.00     0.031 H 
ENDBRANCH   1  13
BRANCH   6  17
ATOM     17  C6  <0> d           1.469  -2.493   0.071  0.00  0.00    -0.050 C 
ATOM     18  H10 <0> d           0.966  -2.203  -0.851  0.00  0.00     0.031 H 
ATOM     19  H11 <0> d           2.491  -2.114   0.062  0.00  0.00     0.031 H 
ATOM     20  H12 <0> d           1.485  -3.580   0.150  0.00  0.00     0.031 H 
ENDBRANCH   6  17
TORSDOF 2
