REMARK  2 active torsions:
REMARK  status: ('A' for Active; 'I' for Inactive)
REMARK    1  A    between atoms: C1_1  and  C2_2 
REMARK    2  A    between atoms: N1_5  and  C5_7 
ROOT
ATOM      1  C2  <0> d          -0.742   1.585  -1.213  0.00  0.00     0.027 A 
ATOM      2  C3  <0> d          -0.182   1.856  -2.409  0.00  0.00     0.007 A 
ATOM      3  C4  <0> d          -1.204   2.299  -3.282  0.00  0.00     0.263 A 
ATOM      4  N1  <0> d          -2.363   2.286  -2.593  0.00  0.00    -0.262 N 
ATOM      5  N2  <0> d          -2.082   1.833  -1.297  0.00  0.00    -0.300 N 
ATOM      6  O1  <0> d          -1.062   2.631  -4.445  0.00  0.00    -0.267 OA
ATOM      7  H4  <0> d           0.864   1.754  -2.657  0.00  0.00     0.095 H 
ATOM      8  H8  <0> d          -2.728   1.719  -0.582  0.00  0.00     0.187 HD
ENDROOT
BRANCH   1   9
ATOM      9  C1  <0> d          -0.013   1.086   0.008  0.00  0.00    -0.036 C 
ATOM     10  H1  <0> d           0.002  -0.004   0.002  0.00  0.00     0.035 H 
ATOM     11  H2  <0> d           1.010   1.463   0.000  0.00  0.00     0.035 H 
ATOM     12  H3  <0> d          -0.523   1.437   0.905  0.00  0.00     0.035 H 
ENDBRANCH   1   9
BRANCH   4  13
ATOM     13  C5  <0> d          -3.679   2.669  -3.109  0.00  0.00     0.004 C 
ATOM     14  H5  <0> d          -3.587   2.973  -4.151  0.00  0.00     0.059 H 
ATOM     15  H6  <0> d          -4.359   1.820  -3.037  0.00  0.00     0.059 H 
ATOM     16  H7  <0> d          -4.072   3.499  -2.522  0.00  0.00     0.059 H 
ENDBRANCH   4  13
TORSDOF 2
