REMARK  2 active torsions:
REMARK  status: ('A' for Active; 'I' for Inactive)
REMARK       I    between atoms: N1_3  and  C6_8 
REMARK    1  A    between atoms: C6_8  and  C7_10 
REMARK    2  A    between atoms: C7_10  and  O3_11 
ROOT
ATOM      1  C1  <0> d          -0.018   1.509   0.010  0.00  0.00     0.005 C 
ATOM      2  C2  <0> d           1.430   2.013  -0.001  0.00  0.00     0.004 C 
ATOM      3  N1  <0> d           2.184   1.309   1.044  0.00  0.00    -0.350 N 
ATOM      4  C3  <0> d           2.251  -0.158   1.016  0.00  0.00     0.004 C 
ATOM      5  C4  <0> d           0.824  -0.718   1.053  0.00  0.00     0.005 C 
ATOM      6  C5  <0> d           0.002  -0.004   0.002  0.00  0.00     0.130 C 
ATOM      7  O1  <0> d          -0.622  -0.626  -0.824  0.00  0.00    -0.298 OA
ATOM      8  C6  <0> d           2.808   2.001   2.019  0.00  0.00     0.243 C 
ATOM      9  O2  <0> d           2.748   3.212   2.035  0.00  0.00    -0.271 OA
ATOM     10  H1  <0> d          -0.524   1.864   0.908  0.00  0.00     0.046 H 
ATOM     11  H2  <0> d          -0.541   1.873  -0.874  0.00  0.00     0.046 H 
ATOM     12  H3  <0> d           1.879   1.813  -0.973  0.00  0.00     0.065 H 
ATOM     13  H4  <0> d           1.445   3.085   0.197  0.00  0.00     0.065 H 
ATOM     14  H5  <0> d           2.748  -0.483   0.101  0.00  0.00     0.065 H 
ATOM     15  H6  <0> d           2.807  -0.515   1.883  0.00  0.00     0.065 H 
ATOM     16  H7  <0> d           0.843  -1.787   0.840  0.00  0.00     0.046 H 
ATOM     17  H8  <0> d           0.388  -0.548   2.037  0.00  0.00     0.046 H 
ENDROOT
BRANCH   8  18
ATOM     18  C7  <0> d           3.579   1.270   3.087  0.00  0.00     0.090 C 
ATOM     19  H9  <0> d           2.908   0.601   3.627  0.00  0.00     0.088 H 
ATOM     20  H10 <0> d           4.377   0.688   2.625  0.00  0.00     0.088 H 
BRANCH  18  21
ATOM     21  O3  <0> d           4.144   2.214   3.998  0.00  0.00    -0.392 OA
ATOM     22  H11 <0> d           4.656   1.813   4.713  0.00  0.00     0.210 HD
ENDBRANCH  18  21
ENDBRANCH   8  18
TORSDOF 2
