REMARK  7 active torsions:
REMARK  status: ('A' for Active; 'I' for Inactive)
REMARK    1  A    between atoms: C1_1  and  C2_2 
REMARK    2  A    between atoms: C2_2  and  C3_3 
REMARK    3  A    between atoms: C3_3  and  C4_4 
REMARK    4  A    between atoms: C3_3  and  C6_6 
REMARK    5  A    between atoms: C3_3  and  C8_8 
REMARK    6  A    between atoms: C4_4  and  C5_5 
REMARK    7  A    between atoms: C6_6  and  C7_7 
REMARK       I    between atoms: C8_8  and  N1_10 
ROOT
ATOM      1  C3  <0> d          -1.208   3.131   0.025  0.00  0.00     0.040 C 
ENDROOT
BRANCH   1   2
ATOM      2  C2  <0> d          -2.657   3.621   0.034  0.00  0.00    -0.053 C 
ATOM      3  H4  <0> d          -3.170   3.256  -0.855  0.00  0.00     0.034 H 
ATOM      4  H5  <0> d          -3.162   3.246   0.925  0.00  0.00     0.034 H 
BRANCH   2   5
ATOM      5  C1  <0> d          -2.678   5.151   0.043  0.00  0.00    -0.075 C 
ATOM      6  H1  <0> d          -3.710   5.500   0.050  0.00  0.00     0.027 H 
ATOM      7  H2  <0> d          -2.165   5.516   0.932  0.00  0.00     0.027 H 
ATOM      8  H3  <0> d          -2.173   5.526  -0.848  0.00  0.00     0.027 H 
ENDBRANCH   2   5
ENDBRANCH   1   2
BRANCH   1   9
ATOM      9  C4  <0> d          -0.488   3.644   1.273  0.00  0.00    -0.053 C 
ATOM     10  H6  <0> d           0.545   3.294   1.267  0.00  0.00     0.034 H 
ATOM     11  H7  <0> d          -0.502   4.734   1.279  0.00  0.00     0.034 H 
BRANCH   9  12
ATOM     12  C5  <0> d          -1.196   3.117   2.523  0.00  0.00    -0.075 C 
ATOM     13  H8  <0> d          -1.181   2.027   2.517  0.00  0.00     0.027 H 
ATOM     14  H9  <0> d          -0.683   3.482   3.413  0.00  0.00     0.027 H 
ATOM     15  H10 <0> d          -2.228   3.466   2.530  0.00  0.00     0.027 H 
ENDBRANCH   9  12
ENDBRANCH   1   9
BRANCH   1  16
ATOM     16  C6  <0> d          -0.499   3.657  -1.225  0.00  0.00    -0.053 C 
ATOM     17  H11 <0> d          -0.514   4.747  -1.219  0.00  0.00     0.034 H 
ATOM     18  H12 <0> d           0.533   3.308  -1.232  0.00  0.00     0.034 H 
BRANCH  16  19
ATOM     19  C7  <0> d          -1.220   3.144  -2.474  0.00  0.00    -0.075 C 
ATOM     20  H13 <0> d          -0.715   3.519  -3.364  0.00  0.00     0.027 H 
ATOM     21  H14 <0> d          -1.205   2.054  -2.480  0.00  0.00     0.027 H 
ATOM     22  H15 <0> d          -2.252   3.494  -2.467  0.00  0.00     0.027 H 
ENDBRANCH  16  19
ENDBRANCH   1  16
BRANCH   1  23
ATOM     23  C8  <0> d          -1.187   1.624   0.017  0.00  0.00     0.224 C 
ATOM     24  O1  <0> d          -2.229   1.003   0.018  0.00  0.00    -0.273 OA
ATOM     25  N1  <0> d          -0.011   0.966   0.007  0.00  0.00    -0.369 N 
ATOM     26  H16 <0> d           0.002  -0.004   0.002  0.00  0.00     0.159 HD
ATOM     27  H17 <0> d           0.822   1.462   0.002  0.00  0.00     0.159 HD
ENDBRANCH   1  23
TORSDOF 7
