REMARK  2 active torsions:
REMARK  status: ('A' for Active; 'I' for Inactive)
REMARK    1  A    between atoms: C2_2  and  C3_3 
REMARK    2  A    between atoms: C8_8  and  N1_9 
ROOT
ATOM      1  C1  <0> d           0.018  -1.178  -0.004  0.00  0.00    -0.149 C 
ATOM      2  C2  <0> d           0.002  -0.004   0.002  0.00  0.00    -0.075 C 
ATOM      3  H1  <0> d           0.032  -2.228  -0.010  0.00  0.00     0.166 H 
ENDROOT
BRANCH   2   4
ATOM      4  C3  <0> d          -0.017   1.428   0.010  0.00  0.00     0.046 A 
ATOM      5  C8  <0> d           1.185   2.148   0.002  0.00  0.00     0.047 A 
ATOM      6  C7  <0> d           1.157   3.535   0.010  0.00  0.00    -0.016 A 
ATOM      7  C6  <0> d          -0.054   4.204   0.025  0.00  0.00     0.157 A 
ATOM      8  H3  <0> d           2.081   4.093   0.005  0.00  0.00     0.091 H 
ATOM      9  C5  <0> d          -1.247   3.493   0.032  0.00  0.00     0.156 A 
ATOM     10  F1  <0> d          -0.076   5.554   0.033  0.00  0.00    -0.203 F 
ATOM     11  C4  <0> d          -1.234   2.112   0.019  0.00  0.00    -0.022 A 
ATOM     12  F2  <0> d          -2.425   4.154   0.047  0.00  0.00    -0.203 F 
ATOM     13  H2  <0> d          -2.163   1.562   0.021  0.00  0.00     0.090 H 
BRANCH   5  14
ATOM     14  N1  <0> d           2.406   1.472  -0.013  0.00  0.00    -0.398 N 
ATOM     15  H4  <0> d           2.423   0.503  -0.018  0.00  0.00     0.156 HD
ATOM     16  H5  <0> d           3.237   1.973  -0.018  0.00  0.00     0.156 HD
ENDBRANCH   5  14
ENDBRANCH   2   4
TORSDOF 2
