REMARK  1 active torsions:
REMARK  status: ('A' for Active; 'I' for Inactive)
REMARK    1  A    between atoms: C1_1  and  C2_2 
ROOT
ATOM      1  C2  <0> d          -0.013   1.086   0.008  0.00  0.00    -0.051 C 
ATOM      2  H1  <0> d           0.002  -0.004   0.002  0.00  0.00     0.040 H 
ATOM      3  C3  <0> d           1.431   1.650  -0.003  0.00  0.00    -0.056 C 
ATOM      4  C4  <0> d           1.806   1.570  -1.503  0.00  0.00    -0.009 C 
ATOM      5  C5  <0> d           0.525   1.931  -2.234  0.00  0.00     0.127 C 
ATOM      6  O1  <0> d           0.440   2.377  -3.353  0.00  0.00    -0.298 OA
ATOM      7  C6  <0> d          -0.628   1.627  -1.299  0.00  0.00    -0.007 C 
ATOM      8  H5  <0> d           1.446   2.683   0.346  0.00  0.00     0.034 H 
ATOM      9  H6  <0> d           2.094   1.029   0.600  0.00  0.00     0.034 H 
ATOM     10  H7  <0> d           2.549   2.212  -1.696  0.00  0.00     0.044 H 
ATOM     11  H8  <0> d           2.123   0.560  -1.763  0.00  0.00     0.044 H 
ATOM     12  H9  <0> d          -1.236   0.937  -1.692  0.00  0.00     0.044 H 
ATOM     13  H10 <0> d          -1.193   2.537  -1.097  0.00  0.00     0.044 H 
ENDROOT
BRANCH   1  14
ATOM     14  C1  <0> d          -0.784   1.605   1.223  0.00  0.00    -0.072 C 
ATOM     15  H2  <0> d          -0.799   2.695   1.206  0.00  0.00     0.028 H 
ATOM     16  H3  <0> d          -1.806   1.227   1.194  0.00  0.00     0.028 H 
ATOM     17  H4  <0> d          -0.296   1.263   2.136  0.00  0.00     0.028 H 
ENDBRANCH   1  14
TORSDOF 1
