REMARK  2 active torsions:
REMARK  status: ('A' for Active; 'I' for Inactive)
REMARK    1  A    between atoms: C1_1  and  C2_2 
REMARK    2  A    between atoms: C6_6  and  C7_8 
ROOT
ATOM      1  C2  <0> d           1.092   2.030   0.003  0.00  0.00     0.032 A 
ATOM      2  C3  <0> d           2.330   1.419  -0.013  0.00  0.00    -0.039 A 
ATOM      3  C4  <0> d           2.397   0.021  -0.021  0.00  0.00     0.048 A 
ATOM      4  C5  <0> d           1.196  -0.697  -0.013  0.00  0.00    -0.039 A 
ATOM      5  C6  <0> d           0.002  -0.004   0.002  0.00  0.00     0.032 A 
ATOM      6  N1  <0> d          -0.016   1.314   0.009  0.00  0.00    -0.259 NA
ATOM      7  C8  <0> d           3.659  -0.655  -0.037  0.00  0.00     0.099 C 
ATOM      8  N2  <0> d           4.660  -1.192  -0.050  0.00  0.00    -0.191 NA
ATOM      9  H4  <0> d           3.233   2.011  -0.018  0.00  0.00     0.088 H 
ATOM     10  H5  <0> d           1.203  -1.777  -0.019  0.00  0.00     0.088 H 
ENDROOT
BRANCH   1  11
ATOM     11  C1  <0> d           1.005   3.534   0.011  0.00  0.00    -0.035 C 
ATOM     12  H1  <0> d           0.994   3.891   1.041  0.00  0.00     0.035 H 
ATOM     13  H2  <0> d           1.868   3.951  -0.508  0.00  0.00     0.035 H 
ATOM     14  H3  <0> d           0.091   3.848  -0.492  0.00  0.00     0.035 H 
ENDBRANCH   1  11
BRANCH   5  15
ATOM     15  C7  <0> d          -1.299  -0.765   0.010  0.00  0.00    -0.035 C 
ATOM     16  H6  <0> d          -1.622  -0.943  -1.016  0.00  0.00     0.035 H 
ATOM     17  H7  <0> d          -1.158  -1.719   0.517  0.00  0.00     0.035 H 
ATOM     18  H8  <0> d          -2.057  -0.183   0.534  0.00  0.00     0.035 H 
ENDBRANCH   5  15
TORSDOF 2
