REMARK  1 active torsions:
REMARK  status: ('A' for Active; 'I' for Inactive)
REMARK    1  A    between atoms: C5_5  and  O1_8 
ROOT
ATOM      1  C1  <0> d           0.002  -0.004   0.002  0.00  0.00    -0.060 C 
ATOM      2  C2  <0> d           0.553  -0.473  -1.346  0.00  0.00    -0.050 C 
ATOM      3  C3  <0> d           1.828   0.252  -1.664  0.00  0.00    -0.104 C 
ATOM      4  C4  <0> d           2.206   1.344  -1.082  0.00  0.00    -0.080 C 
ATOM      5  C5  <0> d           1.426   2.033  -0.001  0.00  0.00     0.051 C 
ATOM      6  H1  <0> d           1.888   1.827   0.965  0.00  0.00     0.089 H 
ATOM      7  C6  <0> d          -0.019   1.530   0.011  0.00  0.00    -0.038 C 
ATOM      8  H2  <0> d           0.643  -0.366   0.806  0.00  0.00     0.033 H 
ATOM      9  H3  <0> d          -1.010  -0.385   0.141  0.00  0.00     0.033 H 
ATOM     10  H4  <0> d           0.747  -1.545  -1.304  0.00  0.00     0.038 H 
ATOM     11  H5  <0> d          -0.180  -0.270  -2.127  0.00  0.00     0.038 H 
ATOM     12  H6  <0> d           2.470  -0.164  -2.427  0.00  0.00     0.076 H 
ATOM     13  H7  <0> d           3.140   1.788  -1.394  0.00  0.00     0.080 H 
ATOM     14  H8  <0> d          -0.540   1.894  -0.875  0.00  0.00     0.037 H 
ATOM     15  H9  <0> d          -0.523   1.884   0.909  0.00  0.00     0.037 H 
ENDROOT
BRANCH   5  16
ATOM     16  O1  <0> d           1.435   3.443  -0.235  0.00  0.00    -0.392 OA
ATOM     17  H10 <0> d           2.319   3.833  -0.256  0.00  0.00     0.210 HD
ENDBRANCH   5  16
TORSDOF 1
