REMARK  4 active torsions:
REMARK  status: ('A' for Active; 'I' for Inactive)
REMARK    1  A    between atoms: C1_1  and  N1_2 
REMARK    2  A    between atoms: C2_3  and  C8_10 
REMARK    3  A    between atoms: C4_5  and  C5_7 
REMARK    4  A    between atoms: C8_10  and  O1_11 
ROOT
ATOM      1  N1  <0> d           3.396   2.328  -0.508  0.00  0.00    -0.276 N 
ATOM      2  C2  <0> d           3.030   3.093   0.542  0.00  0.00     0.055 A 
ATOM      3  C3  <0> d           1.762   2.758   0.875  0.00  0.00    -0.032 A 
ATOM      4  C4  <0> d           1.338   1.754  -0.001  0.00  0.00     0.061 A 
ATOM      5  N2  <0> d           2.318   1.492  -0.827  0.00  0.00    -0.177 NA
ATOM      6  H4  <0> d           1.181   3.190   1.676  0.00  0.00     0.089 H 
ENDROOT
BRANCH   4   7
ATOM      7  C5  <0> d          -0.013   1.086   0.008  0.00  0.00    -0.010 A 
ATOM      8  C7  <0> d          -1.150   1.781  -0.743  0.00  0.00    -0.056 A 
ATOM      9  C6  <0> d          -1.136   1.773   0.788  0.00  0.00    -0.056 A 
ATOM     10  H8  <0> d          -0.922   2.722  -1.243  0.00  0.00     0.034 H 
ATOM     11  H9  <0> d          -1.883   1.149  -1.243  0.00  0.00     0.034 H 
ATOM     12  H6  <0> d          -1.859   1.135   1.295  0.00  0.00     0.034 H 
ATOM     13  H7  <0> d          -0.897   2.708   1.294  0.00  0.00     0.034 H 
ATOM     14  H5  <0> d           0.002  -0.004   0.002  0.00  0.00     0.049 H 
ENDBRANCH   4   7
BRANCH   2  15
ATOM     15  C8  <0> d           3.882   4.134   1.222  0.00  0.00     0.056 C 
ATOM     16  H10 <0> d           4.782   3.665   1.619  0.00  0.00     0.083 H 
ATOM     17  H11 <0> d           4.161   4.903   0.501  0.00  0.00     0.083 H 
BRANCH  15  18
ATOM     18  O1  <0> d           3.144   4.729   2.291  0.00  0.00    -0.395 OA
ATOM     19  H12 <0> d           3.632   5.410   2.774  0.00  0.00     0.209 HD
ENDBRANCH  15  18
ENDBRANCH   2  15
BRANCH   1  20
ATOM     20  C1  <0> d           4.692   2.362  -1.190  0.00  0.00     0.003 C 
ATOM     21  H1  <0> d           5.372   1.656  -0.713  0.00  0.00     0.059 H 
ATOM     22  H2  <0> d           4.559   2.090  -2.236  0.00  0.00     0.059 H 
ATOM     23  H3  <0> d           5.109   3.367  -1.126  0.00  0.00     0.059 H 
ENDBRANCH   1  20
TORSDOF 4
