REMARK  0 active torsions:
REMARK  status: ('A' for Active; 'I' for Inactive)
ROOT
ATOM      1  C1  <0> d           1.197   1.770   0.000  0.00  0.00    -0.082 A 
ATOM      2  C2  <0> d          -0.013   1.076   0.008  0.00  0.00    -0.082 A 
ATOM      3  C3  <0> d          -1.209   1.720   0.017  0.00  0.00    -0.071 A 
ATOM      4  C4  <0> d          -1.234   3.129   0.030  0.00  0.00    -0.010 A 
ATOM      5  C5  <0> d          -2.417   3.854   0.045  0.00  0.00    -0.009 A 
ATOM      6  N1  <0> d          -2.379   5.196   0.052  0.00  0.00    -0.333 N 
ATOM      7  H1  <0> d          -3.217   5.684   0.064  0.00  0.00     0.168 HD
ATOM      8  C6  <0> d          -1.231   5.890   0.044  0.00  0.00     0.245 A 
ATOM      9  O1  <0> d          -1.275   7.112   0.051  0.00  0.00    -0.268 OA
ATOM     10  C7  <0> d           0.008   5.256   0.029  0.00  0.00    -0.007 A 
ATOM     11  C8  <0> d           0.043   3.859   0.021  0.00  0.00    -0.019 A 
ATOM     12  C9  <0> d           1.243   3.130   0.006  0.00  0.00    -0.072 A 
ATOM     13  H2  <0> d           2.122   1.213  -0.012  0.00  0.00     0.083 H 
ATOM     14  H3  <0> d           0.002  -0.004   0.002  0.00  0.00     0.083 H 
ATOM     15  H4  <0> d          -2.132   1.158   0.019  0.00  0.00     0.084 H 
ATOM     16  H5  <0> d          -3.366   3.340   0.052  0.00  0.00     0.112 H 
ATOM     17  H6  <0> d           0.922   5.832   0.024  0.00  0.00     0.093 H 
ATOM     18  H7  <0> d           2.193   3.643   0.001  0.00  0.00     0.084 H 
ENDROOT
TORSDOF 0
