REMARK  1 active torsions:
REMARK  status: ('A' for Active; 'I' for Inactive)
REMARK    1  A    between atoms: C2_2  and  C4_7 
ROOT
ATOM      1  C4  <0> d           1.720   3.212   0.002  0.00  0.00    -0.026 C 
ATOM      2  C5  <0> d           2.617   3.486  -1.222  0.00  0.00    -0.058 C 
ATOM      3  C6  <0> d           3.698   4.460  -0.692  0.00  0.00    -0.064 C 
ATOM      4  C7  <0> d           3.969   3.925   0.736  0.00  0.00    -0.064 C 
ATOM      5  C8  <0> d           2.580   3.491   1.248  0.00  0.00    -0.058 C 
ATOM      6  H4  <0> d           0.856   3.876  -0.011  0.00  0.00     0.047 H 
ATOM      7  H5  <0> d           3.076   2.562  -1.574  0.00  0.00     0.034 H 
ATOM      8  H6  <0> d           2.041   3.954  -2.021  0.00  0.00     0.034 H 
ATOM      9  H7  <0> d           4.600   4.406  -1.302  0.00  0.00     0.033 H 
ATOM     10  H8  <0> d           3.315   5.480  -0.656  0.00  0.00     0.033 H 
ATOM     11  H9  <0> d           4.646   3.071   0.701  0.00  0.00     0.033 H 
ATOM     12  H10 <0> d           4.380   4.713   1.367  0.00  0.00     0.033 H 
ATOM     13  H11 <0> d           2.134   4.291   1.838  0.00  0.00     0.034 H 
ATOM     14  H12 <0> d           2.669   2.587   1.850  0.00  0.00     0.034 H 
ENDROOT
BRANCH   1  15
ATOM     15  C2  <0> d           1.267   1.775  -0.001  0.00  0.00    -0.018 A 
ATOM     16  C1  <0> d          -0.016   1.345   0.009  0.00  0.00     0.004 A 
ATOM     17  N2  <0> d           0.002  -0.004   0.002  0.00  0.00    -0.289 N 
ATOM     18  H2  <0> d          -0.897   1.970   0.025  0.00  0.00     0.114 H 
ATOM     19  N1  <0> d           1.341  -0.417  -0.013  0.00  0.00    -0.187 NA
ATOM     20  H1  <0> d          -0.774  -0.585   0.006  0.00  0.00     0.188 HD
ATOM     21  C3  <0> d           2.098   0.650  -0.015  0.00  0.00     0.029 A 
ATOM     22  H3  <0> d           3.178   0.660  -0.025  0.00  0.00     0.118 H 
ENDBRANCH   1  15
TORSDOF 1
