REMARK  4 active torsions:
REMARK  status: ('A' for Active; 'I' for Inactive)
REMARK    1  A    between atoms: C1_1  and  C2_2 
REMARK    2  A    between atoms: C2_2  and  C3_3 
REMARK    3  A    between atoms: C2_2  and  C4_4 
REMARK    4  A    between atoms: C4_4  and  N1_5 
ROOT
ATOM      1  C4  <0> d           0.718  -0.497  -1.257  0.00  0.00     0.003 C 
ATOM      2  H8  <0> d           1.719  -0.045  -1.310  0.00  0.00     0.065 H 
ATOM      3  H9  <0> d           0.812  -1.593  -1.220  0.00  0.00     0.065 H 
ENDROOT
BRANCH   1   4
ATOM      4  C2  <0> d           0.002  -0.004   0.002  0.00  0.00    -0.045 C 
ATOM      5  H4  <0> d          -1.030  -0.385   0.010  0.00  0.00     0.041 H 
BRANCH   4   6
ATOM      6  C1  <0> d          -0.019   1.526   0.010  0.00  0.00    -0.072 C 
ATOM      7  H1  <0> d          -0.551   1.890  -0.881  0.00  0.00     0.028 H 
ATOM      8  H2  <0> d           1.013   1.907   0.003  0.00  0.00     0.028 H 
ATOM      9  H3  <0> d          -0.534   1.881   0.915  0.00  0.00     0.028 H 
ENDBRANCH   4   6
BRANCH   4  10
ATOM     10  C3  <0> d           0.742  -0.511   1.242  0.00  0.00    -0.072 C 
ATOM     11  H5  <0> d           0.757  -1.611   1.235  0.00  0.00     0.028 H 
ATOM     12  H6  <0> d           0.227  -0.156   2.147  0.00  0.00     0.028 H 
ATOM     13  H7  <0> d           1.774  -0.130   1.234  0.00  0.00     0.028 H 
ENDBRANCH   4  10
ENDBRANCH   1   4
BRANCH   1  14
ATOM     14  N1  <0> d          -0.055  -0.114  -2.441  0.00  0.00    -0.350 N 
ATOM     15  C7  <0> d           0.071   1.032  -3.143  0.00  0.00     0.065 A 
ATOM     16  N2  <0> d          -0.785   1.016  -4.128  0.00  0.00    -0.255 NA
ATOM     17  H12 <0> d           0.766   1.831  -2.926  0.00  0.00     0.143 H 
ATOM     18  C6  <0> d          -1.482  -0.129  -4.089  0.00  0.00     0.018 A 
ATOM     19  C5  <0> d          -1.036  -0.853  -3.044  0.00  0.00    -0.003 A 
ATOM     20  H11 <0> d          -2.260  -0.422  -4.778  0.00  0.00     0.117 H 
ATOM     21  H10 <0> d          -1.387  -1.828  -2.740  0.00  0.00     0.113 H 
ENDBRANCH   1  14
TORSDOF 4
