REMARK  1 active torsions:
REMARK  status: ('A' for Active; 'I' for Inactive)
REMARK    1  A    between atoms: C3_3  and  C6_8 
ROOT
ATOM      1  C6  <0> d           3.691   2.061  -0.022  0.00  0.00     0.054 C 
ATOM      2  C7  <0> d           4.515   1.594   1.104  0.00  0.00     0.065 C 
ATOM      3  N2  <0> d           5.152   1.233   1.974  0.00  0.00    -0.197 NA
ATOM      4  H4  <0> d           4.210   1.860  -0.960  0.00  0.00     0.064 H 
ATOM      5  H5  <0> d           3.517   3.133   0.075  0.00  0.00     0.064 H 
ENDROOT
BRANCH   1   6
ATOM      6  C3  <0> d           2.371   1.335  -0.013  0.00  0.00     0.049 A 
ATOM      7  C2  <0> d           1.194   2.058   0.002  0.00  0.00    -0.058 A 
ATOM      8  C1  <0> d          -0.017   1.381   0.010  0.00  0.00    -0.078 A 
ATOM      9  H2  <0> d           1.216   3.138   0.007  0.00  0.00     0.086 H 
ATOM     10  C5  <0> d           0.002  -0.004   0.002  0.00  0.00    -0.044 A 
ATOM     11  H1  <0> d          -0.952   1.921   0.026  0.00  0.00     0.083 H 
ATOM     12  C4  <0> d           1.220  -0.662  -0.014  0.00  0.00     0.126 A 
ATOM     13  H3  <0> d          -0.922  -0.564   0.008  0.00  0.00     0.088 H 
ATOM     14  N1  <0> d           2.352   0.016  -0.021  0.00  0.00    -0.240 NA
ATOM     15 Cl1  <0> d           1.258  -2.397  -0.024  0.00  0.00    -0.062 Cl
ENDBRANCH   1   6
TORSDOF 1
