REMARK  3 active torsions:
REMARK  status: ('A' for Active; 'I' for Inactive)
REMARK    1  A    between atoms: C1_1  and  C2_2 
REMARK    2  A    between atoms: C2_2  and  N1_3 
REMARK    3  A    between atoms: N1_3  and  C3_4 
ROOT
ATOM      1  C3  <0> d           0.002  -0.004   0.002  0.00  0.00     0.727 A 
ATOM      2  N2  <0> d          -0.016   1.321   0.009  0.00  0.00    -0.033 NA
ATOM      3  C4  <0> d           1.114   2.014   0.002  0.00  0.00     0.232 A 
ATOM      4  C5  <0> d           2.325   1.335  -0.013  0.00  0.00     0.030 A 
ATOM      5  C6  <0> d           2.306  -0.053  -0.020  0.00  0.00     0.232 A 
ATOM      6  N3  <0> d           1.139  -0.683  -0.013  0.00  0.00    -0.033 NA
ATOM      7  F1  <0> d           3.461  -0.752  -0.035  0.00  0.00    -0.183 F 
ATOM      8  F2  <0> d           1.087   3.365   0.010  0.00  0.00    -0.183 F 
ATOM      9  H7  <0> d           3.260   1.875  -0.019  0.00  0.00     0.098 H 
ENDROOT
BRANCH   1  10
ATOM     10  N1  <0> d          -1.197  -0.695   0.010  0.00  0.00    -0.223 N 
ATOM     11  H6  <0> d          -2.037  -0.210   0.021  0.00  0.00     0.177 HD
BRANCH  10  12
ATOM     12  C2  <0> d          -1.198  -2.160   0.002  0.00  0.00     0.006 C 
ATOM     13  H4  <0> d          -0.693  -2.519  -0.895  0.00  0.00     0.064 H 
ATOM     14  H5  <0> d          -0.675  -2.529   0.885  0.00  0.00     0.064 H 
BRANCH  12  15
ATOM     15  C1  <0> d          -2.640  -2.670   0.014  0.00  0.00    -0.061 C 
ATOM     16  H1  <0> d          -3.145  -2.311   0.911  0.00  0.00     0.029 H 
ATOM     17  H2  <0> d          -3.163  -2.301  -0.869  0.00  0.00     0.029 H 
ATOM     18  H3  <0> d          -2.641  -3.760   0.008  0.00  0.00     0.029 H 
ENDBRANCH  12  15
ENDBRANCH  10  12
ENDBRANCH   1  10
TORSDOF 3
