REMARK  0 active torsions:
REMARK  status: ('A' for Active; 'I' for Inactive)
ROOT
ATOM      1  C1  <0> d          -1.250   3.136   0.030  0.00  0.00    -0.045 A 
ATOM      2  C2  <0> d          -0.073   3.849   0.023  0.00  0.00    -0.066 A 
ATOM      3  C3  <0> d           1.159   3.175   0.008  0.00  0.00     0.016 A 
ATOM      4  C4  <0> d           1.175   1.779   0.000  0.00  0.00    -0.041 A 
ATOM      5  C5  <0> d          -0.013   1.076   0.008  0.00  0.00    -0.039 A 
ATOM      6  C6  <0> d          -1.224   1.749   0.017  0.00  0.00     0.117 A 
ATOM      7  F1  <0> d          -2.382   1.054   0.019  0.00  0.00    -0.206 F 
ATOM      8  C7  <0> d           2.604   1.290  -0.016  0.00  0.00    -0.034 A 
ATOM      9  C8  <0> d           3.488   2.545  -0.018  0.00  0.00    -0.001 A 
ATOM     10  C9  <0> d           2.529   3.710  -0.003  0.00  0.00     0.160 A 
ATOM     11  O1  <0> d           2.834   4.883  -0.001  0.00  0.00    -0.292 OA
ATOM     12  H1  <0> d          -2.196   3.657   0.041  0.00  0.00     0.088 H 
ATOM     13  H2  <0> d          -0.097   4.929   0.029  0.00  0.00     0.085 H 
ATOM     14  H3  <0> d           0.002  -0.004   0.002  0.00  0.00     0.089 H 
ATOM     15  H4  <0> d           2.805   0.692   0.873  0.00  0.00     0.040 H 
ATOM     16  H5  <0> d           2.788   0.701  -0.914  0.00  0.00     0.040 H 
ATOM     17  H6  <0> d           4.063   2.546  -0.836  0.00  0.00     0.045 H 
ATOM     18  H7  <0> d           4.120   2.564   0.870  0.00  0.00     0.045 H 
ENDROOT
TORSDOF 0
