REMARK  3 active torsions:
REMARK  status: ('A' for Active; 'I' for Inactive)
REMARK    1  A    between atoms: C1_1  and  C2_2 
REMARK    2  A    between atoms: C2_2  and  C3_3 
REMARK    3  A    between atoms: C2_2  and  C4_4 
ROOT
ATOM      1  C4  <0> d           0.718  -0.497  -1.257  0.00  0.00    -0.050 C 
ATOM      2  H1  <0> d           0.180  -0.129  -2.130  0.00  0.00     0.040 H 
ATOM      3  C5  <0> d           0.683  -2.015  -1.271  0.00  0.00    -0.053 C 
ATOM      4  C6  <0> d           1.210  -2.557  -2.602  0.00  0.00     0.010 C 
ATOM      5  C7  <0> d           2.720  -2.644  -2.520  0.00  0.00     0.217 C 
ATOM      6  O1  <0> d           3.260  -3.728  -2.454  0.00  0.00    -0.274 OA
ATOM      7  N1  <0> d           3.458  -1.533  -2.520  0.00  0.00    -0.361 N 
ATOM      8  C8  <0> d           2.815  -0.212  -2.607  0.00  0.00    -0.004 C 
ATOM      9  C9  <0> d           2.122   0.080  -1.274  0.00  0.00    -0.047 C 
ATOM     10  H9  <0> d           1.300  -2.396  -0.458  0.00  0.00     0.034 H 
ATOM     11  H10 <0> d          -0.344  -2.351  -1.129  0.00  0.00     0.034 H 
ATOM     12  H11 <0> d           0.796  -3.548  -2.784  0.00  0.00     0.047 H 
ATOM     13  H12 <0> d           0.926  -1.884  -3.410  0.00  0.00     0.047 H 
ATOM     14  H13 <0> d           4.424  -1.596  -2.463  0.00  0.00     0.162 HD
ATOM     15  H14 <0> d           3.570   0.550  -2.802  0.00  0.00     0.064 H 
ATOM     16  H15 <0> d           2.079  -0.215  -3.410  0.00  0.00     0.064 H 
ATOM     17  H16 <0> d           2.067   1.159  -1.129  0.00  0.00     0.035 H 
ATOM     18  H17 <0> d           2.700  -0.361  -0.462  0.00  0.00     0.035 H 
ENDROOT
BRANCH   1  19
ATOM     19  C2  <0> d           0.002  -0.004   0.002  0.00  0.00    -0.058 C 
ATOM     20  H5  <0> d           0.529  -0.365   0.885  0.00  0.00     0.039 H 
BRANCH  19  21
ATOM     21  C1  <0> d          -0.019   1.526   0.010  0.00  0.00    -0.073 C 
ATOM     22  H2  <0> d           1.004   1.903   0.003  0.00  0.00     0.028 H 
ATOM     23  H3  <0> d          -0.546   1.887  -0.873  0.00  0.00     0.028 H 
ATOM     24  H4  <0> d          -0.529   1.877   0.907  0.00  0.00     0.028 H 
ENDBRANCH  19  21
BRANCH  19  25
ATOM     25  C3  <0> d          -1.433  -0.534   0.013  0.00  0.00    -0.073 C 
ATOM     26  H6  <0> d          -1.960  -0.173  -0.870  0.00  0.00     0.028 H 
ATOM     27  H7  <0> d          -1.419  -1.623   0.007  0.00  0.00     0.028 H 
ATOM     28  H8  <0> d          -1.944  -0.182   0.910  0.00  0.00     0.028 H 
ENDBRANCH  19  25
ENDBRANCH   1  19
TORSDOF 3
