REMARK  0 active torsions:
REMARK  status: ('A' for Active; 'I' for Inactive)
ROOT
ATOM      1  C1  <0> d          -0.016   1.354   0.009  0.00  0.00    -0.027 A 
ATOM      2  C2  <0> d           1.195   2.056   0.002  0.00  0.00     0.024 A 
ATOM      3  N1  <0> d           2.338   1.410  -0.013  0.00  0.00    -0.074 NA
ATOM      4  C3  <0> d           2.372   0.069  -0.021  0.00  0.00     0.733 A 
ATOM      5  N2  <0> d           3.379  -0.791  -0.035  0.00  0.00    -0.073 NA
ATOM      6  C4  <0> d           2.895  -2.037  -0.036  0.00  0.00     0.037 A 
ATOM      7  C5  <0> d           1.547  -1.976  -0.023  0.00  0.00     0.021 A 
ATOM      8  N3  <0> d           1.204  -0.650  -0.013  0.00  0.00    -0.142 N 
ATOM      9  C6  <0> d           0.002  -0.004   0.002  0.00  0.00     0.128 A 
ATOM     10 Cl1  <0> d          -1.482  -0.905   0.012  0.00  0.00    -0.063 Cl
ATOM     11  H1  <0> d          -0.956   1.887   0.026  0.00  0.00     0.090 H 
ATOM     12  H2  <0> d           1.190   3.136   0.007  0.00  0.00     0.115 H 
ATOM     13  H3  <0> d           3.484  -2.942  -0.047  0.00  0.00     0.117 H 
ATOM     14  H4  <0> d           0.866  -2.815  -0.021  0.00  0.00     0.115 H 
ENDROOT
TORSDOF 0
