REMARK  4 active torsions:
REMARK  status: ('A' for Active; 'I' for Inactive)
REMARK    1  A    between atoms: C1_1  and  C2_2 
REMARK    2  A    between atoms: C2_2  and  C3_3 
REMARK    3  A    between atoms: C6_7  and  C7_10 
REMARK    4  A    between atoms: C7_10  and  C8_11 
ROOT
ATOM      1  C3  <0> d           0.002  -0.004   0.002  0.00  0.00     0.038 C 
ATOM      2  H1  <0> d           0.613  -0.370   0.827  0.00  0.00     0.083 H 
ATOM      3  C4  <0> d          -1.437  -0.548   0.135  0.00  0.00    -0.039 C 
ATOM      4  C5  <0> d          -1.419  -1.762  -0.836  0.00  0.00    -0.039 C 
ATOM      5  C6  <0> d          -0.462  -1.244  -1.939  0.00  0.00     0.038 C 
ATOM      6  H2  <0> d          -1.001  -0.614  -2.645  0.00  0.00     0.083 H 
ATOM      7  O1  <0> d           0.532  -0.476  -1.242  0.00  0.00    -0.381 OA
ATOM      8  H8  <0> d          -1.637  -0.870   1.157  0.00  0.00     0.036 H 
ATOM      9  H9  <0> d          -2.164   0.196  -0.188  0.00  0.00     0.036 H 
ATOM     10  H10 <0> d          -2.413  -1.957  -1.239  0.00  0.00     0.036 H 
ATOM     11  H11 <0> d          -1.014  -2.649  -0.349  0.00  0.00     0.036 H 
ENDROOT
BRANCH   1  12
ATOM     12  C2  <0> d          -0.019   1.526   0.010  0.00  0.00    -0.044 C 
ATOM     13  H6  <0> d          -0.546   1.887  -0.873  0.00  0.00     0.036 H 
ATOM     14  H7  <0> d          -0.529   1.877   0.907  0.00  0.00     0.036 H 
BRANCH  12  15
ATOM     15  C1  <0> d           1.417   2.055  -0.000  0.00  0.00    -0.074 C 
ATOM     16  H3  <0> d           1.944   1.694   0.883  0.00  0.00     0.027 H 
ATOM     17  H4  <0> d           1.927   1.704  -0.897  0.00  0.00     0.027 H 
ATOM     18  H5  <0> d           1.402   3.145   0.006  0.00  0.00     0.027 H 
ENDBRANCH  12  15
ENDBRANCH   1  12
BRANCH   5  19
ATOM     19  C7  <0> d           0.192  -2.420  -2.669  0.00  0.00    -0.044 C 
ATOM     20  H12 <0> d           0.790  -2.998  -1.965  0.00  0.00     0.036 H 
ATOM     21  H13 <0> d          -0.582  -3.057  -3.097  0.00  0.00     0.036 H 
BRANCH  19  22
ATOM     22  C8  <0> d           1.091  -1.889  -3.788  0.00  0.00    -0.074 C 
ATOM     23  H14 <0> d           0.492  -1.311  -4.492  0.00  0.00     0.027 H 
ATOM     24  H15 <0> d           1.865  -1.251  -3.360  0.00  0.00     0.027 H 
ATOM     25  H16 <0> d           1.556  -2.726  -4.308  0.00  0.00     0.027 H 
ENDBRANCH  19  22
ENDBRANCH   5  19
TORSDOF 4
