REMARK  2 active torsions:
REMARK  status: ('A' for Active; 'I' for Inactive)
REMARK    1  A    between atoms: C1_1  and  O1_2 
REMARK    2  A    between atoms: O1_2  and  C2_3 
ROOT
ATOM      1  O1  <0> d          -0.017   1.425   0.010  0.00  0.00    -0.270 OA
ENDROOT
BRANCH   1   2
ATOM      2  C1  <0> d           0.002  -0.004   0.002  0.00  0.00     0.309 C 
ATOM      3  F3  <0> d           0.657  -0.455  -1.149  0.00  0.00    -0.184 F 
ATOM      4  F4  <0> d           0.679  -0.468   1.135  0.00  0.00    -0.184 F 
ATOM      5  H1  <0> d          -1.020  -0.381   0.010  0.00  0.00     0.194 H 
ENDBRANCH   1   2
BRANCH   1   6
ATOM      6  C2  <0> d           1.280   2.024   0.001  0.00  0.00     0.309 C 
ATOM      7  F1  <0> d           1.991   1.614   1.134  0.00  0.00    -0.184 F 
ATOM      8  F2  <0> d           1.969   1.627  -1.150  0.00  0.00    -0.184 F 
ATOM      9  H2  <0> d           1.179   3.109   0.007  0.00  0.00     0.194 H 
ENDBRANCH   1   6
TORSDOF 2
