REMARK  3 active torsions:
REMARK  status: ('A' for Active; 'I' for Inactive)
REMARK    1  A    between atoms: C1_1  and  C2_2 
REMARK    2  A    between atoms: C2_2  and  O1_3 
REMARK    3  A    between atoms: O1_3  and  C3_4 
ROOT
ATOM      1  C3  <0> d          -1.497  -1.839   0.006  0.00  0.00     0.134 C 
ATOM      2  N1  <0> d          -0.531  -2.685  -0.002  0.00  0.00    -0.271 NA
ATOM      3  C4  <0> d          -1.005  -4.073  -0.008  0.00  0.00     0.018 C 
ATOM      4  C5  <0> d          -2.490  -3.995   0.417  0.00  0.00    -0.042 C 
ATOM      5  C6  <0> d          -2.836  -2.542   0.015  0.00  0.00    -0.003 C 
ATOM      6  H6  <0> d          -0.920  -4.498  -1.008  0.00  0.00     0.067 H 
ATOM      7  H7  <0> d          -0.438  -4.670   0.707  0.00  0.00     0.067 H 
ATOM      8  H8  <0> d          -3.096  -4.713  -0.137  0.00  0.00     0.036 H 
ATOM      9  H9  <0> d          -2.600  -4.139   1.492  0.00  0.00     0.036 H 
ATOM     10  H10 <0> d          -3.502  -2.089   0.750  0.00  0.00     0.045 H 
ATOM     11  H11 <0> d          -3.287  -2.519  -0.976  0.00  0.00     0.045 H 
ENDROOT
BRANCH   1  12
ATOM     12  O1  <0> d          -1.339  -0.499   0.012  0.00  0.00    -0.338 OA
BRANCH  12  13
ATOM     13  C2  <0> d           0.002  -0.004   0.002  0.00  0.00     0.024 C 
ATOM     14  H4  <0> d           0.512  -0.356  -0.895  0.00  0.00     0.074 H 
ATOM     15  H5  <0> d           0.529  -0.365   0.885  0.00  0.00     0.074 H 
BRANCH  13  16
ATOM     16  C1  <0> d          -0.019   1.526   0.010  0.00  0.00    -0.056 C 
ATOM     17  H1  <0> d           1.004   1.903   0.003  0.00  0.00     0.030 H 
ATOM     18  H2  <0> d          -0.546   1.887  -0.873  0.00  0.00     0.030 H 
ATOM     19  H3  <0> d          -0.529   1.877   0.907  0.00  0.00     0.030 H 
ENDBRANCH  13  16
ENDBRANCH  12  13
ENDBRANCH   1  12
TORSDOF 3
