REMARK  1 active torsions:
REMARK  status: ('A' for Active; 'I' for Inactive)
REMARK    1  A    between atoms: C10_14  and  O1_16 
ROOT
ATOM      1  C1  <0> d           1.383   1.809  -0.001  0.00  0.00    -0.051 C 
ATOM      2  C2  <0> d           0.746   3.240   0.136  0.00  0.00    -0.030 C 
ATOM      3  H1  <0> d           1.438   4.075   0.243  0.00  0.00     0.047 H 
ATOM      4  C3  <0> d          -0.205   2.991   1.313  0.00  0.00    -0.102 C 
ATOM      5  C4  <0> d          -0.643   1.750   1.238  0.00  0.00    -0.102 C 
ATOM      6  C5  <0> d          -0.013   1.086   0.008  0.00  0.00    -0.031 C 
ATOM      7  H2  <0> d           0.002  -0.004   0.002  0.00  0.00     0.046 H 
ATOM      8  C6  <0> d          -0.694   1.774  -1.216  0.00  0.00    -0.012 A 
ATOM      9  H3  <0> d          -0.470   1.284  -2.164  0.00  0.00     0.046 H 
ATOM     10  C7  <0> d          -0.176   3.263  -1.125  0.00  0.00    -0.025 A 
ATOM     11  H4  <0> d           0.350   3.591  -2.022  0.00  0.00     0.048 H 
ATOM     12  C8  <0> d          -1.379   4.114  -0.820  0.00  0.00    -0.099 A 
ATOM     13  C9  <0> d          -2.472   3.367  -0.720  0.00  0.00    -0.079 A 
ATOM     14  C10 <0> d          -2.198   1.901  -0.922  0.00  0.00     0.056 A 
ATOM     15  H5  <0> d          -2.450   1.346  -0.019  0.00  0.00     0.089 H 
ATOM     16  H6  <0> d           1.998   1.542   0.858  0.00  0.00     0.035 H 
ATOM     17  H7  <0> d           1.915   1.678  -0.944  0.00  0.00     0.035 H 
ATOM     18  H8  <0> d          -0.472   3.710   2.073  0.00  0.00     0.077 H 
ATOM     19  H9  <0> d          -1.329   1.280   1.927  0.00  0.00     0.077 H 
ATOM     20  H10 <0> d          -1.344   5.186  -0.699  0.00  0.00     0.077 H 
ATOM     21  H11 <0> d          -3.448   3.775  -0.503  0.00  0.00     0.080 H 
ENDROOT
BRANCH  14  22
ATOM     22  O1  <0> d          -2.956   1.410  -2.029  0.00  0.00    -0.391 OA
ATOM     23  H12 <0> d          -3.914   1.463  -1.905  0.00  0.00     0.210 HD
ENDBRANCH  14  22
TORSDOF 1
