REMARK  2 active torsions:
REMARK  status: ('A' for Active; 'I' for Inactive)
REMARK    1  A    between atoms: C3_3  and  C9_11 
REMARK    2  A    between atoms: C9_11  and  O1_12 
ROOT
ATOM      1  C1  <0> d          -2.991   4.038   0.052  0.00  0.00    -0.080 A 
ATOM      2  C2  <0> d          -3.454   2.729   0.049  0.00  0.00    -0.074 A 
ATOM      3  C3  <0> d          -2.576   1.683   0.035  0.00  0.00    -0.022 A 
ATOM      4  C4  <0> d          -1.202   1.931   0.018  0.00  0.00     0.000 A 
ATOM      5  C5  <0> d          -0.013   1.076   0.008  0.00  0.00    -0.055 A 
ATOM      6  C6  <0> d           1.056   1.889   0.002  0.00  0.00    -0.022 A 
ATOM      7  N1  <0> d           0.647   3.195   0.013  0.00  0.00    -0.365 N 
ATOM      8  H1  <0> d           1.239   3.964   0.011  0.00  0.00     0.165 HD
ATOM      9  C7  <0> d          -0.728   3.256   0.026  0.00  0.00     0.043 A 
ATOM     10  C8  <0> d          -1.640   4.306   0.041  0.00  0.00    -0.056 A 
ATOM     11  H2  <0> d          -3.698   4.855   0.063  0.00  0.00     0.083 H 
ATOM     12  H3  <0> d          -4.517   2.537   0.058  0.00  0.00     0.084 H 
ATOM     13  H4  <0> d           0.002  -0.004   0.002  0.00  0.00     0.087 H 
ATOM     14  H5  <0> d           2.084   1.561  -0.009  0.00  0.00     0.111 H 
ATOM     15  H6  <0> d          -1.290   5.327   0.042  0.00  0.00     0.086 H 
ENDROOT
BRANCH   3  16
ATOM     16  C9  <0> d          -3.088   0.266   0.032  0.00  0.00     0.041 C 
ATOM     17  H7  <0> d          -2.736  -0.246  -0.864  0.00  0.00     0.081 H 
ATOM     18  H8  <0> d          -2.720  -0.256   0.916  0.00  0.00     0.081 H 
BRANCH  16  19
ATOM     19  O1  <0> d          -4.517   0.276   0.045  0.00  0.00    -0.396 OA
ATOM     20  H9  <0> d          -4.917  -0.605   0.043  0.00  0.00     0.209 HD
ENDBRANCH  16  19
ENDBRANCH   3  16
TORSDOF 2
