REMARK  1 active torsions:
REMARK  status: ('A' for Active; 'I' for Inactive)
REMARK    1  A    between atoms: C1_1  and  C2_2 
ROOT
ATOM      1  C2  <0> d           0.002  -0.004   0.002  0.00  0.00     0.066 A 
ATOM      2  C3  <0> d           0.008  -0.825  -1.132  0.00  0.00     0.060 A 
ATOM      3  C4  <0> d           0.026  -2.147  -0.697  0.00  0.00     0.043 A 
ATOM      4  N1  <0> d           0.033  -2.122   0.634  0.00  0.00    -0.281 N 
ATOM      5  H1  <0> d           0.048  -2.898   1.216  0.00  0.00     0.189 HD
ATOM      6  N2  <0> d           0.023  -0.783   1.054  0.00  0.00    -0.179 NA
ATOM      7  C5  <0> d           0.030  -3.323  -1.638  0.00  0.00    -0.024 C 
ATOM      8  C6  <0> d          -0.486  -2.874  -3.009  0.00  0.00    -0.053 C 
ATOM      9  C7  <0> d           0.288  -1.649  -3.504  0.00  0.00    -0.005 C 
ATOM     10  C8  <0> d           0.002  -0.487  -2.565  0.00  0.00     0.163 C 
ATOM     11  O1  <0> d          -0.216   0.637  -2.967  0.00  0.00    -0.292 OA
ATOM     12  H5  <0> d           1.046  -3.705  -1.739  0.00  0.00     0.042 H 
ATOM     13  H6  <0> d          -0.616  -4.107  -1.244  0.00  0.00     0.042 H 
ATOM     14  H7  <0> d          -0.364  -3.689  -3.723  0.00  0.00     0.034 H 
ATOM     15  H8  <0> d          -1.544  -2.623  -2.929  0.00  0.00     0.034 H 
ATOM     16  H9  <0> d           1.356  -1.866  -3.503  0.00  0.00     0.044 H 
ATOM     17  H10 <0> d          -0.036  -1.393  -4.512  0.00  0.00     0.044 H 
ENDROOT
BRANCH   1  18
ATOM     18  C1  <0> d          -0.018   1.503   0.010  0.00  0.00    -0.033 C 
ATOM     19  H2  <0> d           1.004   1.880   0.003  0.00  0.00     0.035 H 
ATOM     20  H3  <0> d          -0.545   1.864  -0.873  0.00  0.00     0.035 H 
ATOM     21  H4  <0> d          -0.529   1.854   0.907  0.00  0.00     0.035 H 
ENDBRANCH   1  18
TORSDOF 1
