REMARK  5 active torsions:
REMARK  status: ('A' for Active; 'I' for Inactive)
REMARK    1  A    between atoms: C1_1  and  C2_2 
REMARK    2  A    between atoms: C5_6  and  C7_8 
REMARK    3  A    between atoms: C7_8  and  C8_9 
REMARK    4  A    between atoms: C8_9  and  C9_11 
REMARK    5  A    between atoms: C8_9  and  O1_12 
ROOT
ATOM      1  C2  <0> d          -4.768   2.844   3.329  0.00  0.00    -0.059 A 
ATOM      2  C3  <0> d          -4.222   2.676   4.592  0.00  0.00    -0.060 A 
ATOM      3  C4  <0> d          -3.031   1.988   4.725  0.00  0.00     0.003 A 
ATOM      4  N1  <0> d          -2.419   1.489   3.668  0.00  0.00    -0.265 NA
ATOM      5  C5  <0> d          -2.906   1.634   2.452  0.00  0.00     0.037 A 
ATOM      6  C6  <0> d          -4.093   2.311   2.242  0.00  0.00    -0.053 A 
ATOM      7  H5  <0> d          -4.721   3.079   5.461  0.00  0.00     0.086 H 
ATOM      8  H6  <0> d          -2.600   1.852   5.705  0.00  0.00     0.114 H 
ATOM      9  H7  <0> d          -4.489   2.423   1.243  0.00  0.00     0.087 H 
ENDROOT
BRANCH   5  10
ATOM     10  C7  <0> d          -2.164   1.050   1.278  0.00  0.00    -0.001 C 
ATOM     11  H8  <0> d          -2.150  -0.047   1.362  0.00  0.00     0.046 H 
ATOM     12  H9  <0> d          -2.669   1.339   0.344  0.00  0.00     0.046 H 
BRANCH  10  13
ATOM     13  C8  <0> d          -0.729   1.579   1.267  0.00  0.00     0.037 C 
ATOM     14  H1  <0> d          -0.708   2.677   1.333  0.00  0.00     0.082 H 
BRANCH  13  15
ATOM     15  C9  <0> d          -0.013   1.086   0.008  0.00  0.00    -0.052 C 
ATOM     16  H10 <0> d           1.019   1.466   0.000  0.00  0.00     0.030 H 
ATOM     17  H11 <0> d          -0.545   1.450  -0.883  0.00  0.00     0.030 H 
ATOM     18  H12 <0> d           0.002  -0.014   0.002  0.00  0.00     0.030 H 
ENDBRANCH  13  15
BRANCH  13  19
ATOM     19  O1  <0> d          -0.038   1.106   2.425  0.00  0.00    -0.396 OA
ATOM     20  H13 <0> d           1.013   1.385   2.590  0.00  0.00     0.210 HD
ENDBRANCH  13  19
ENDBRANCH  10  13
ENDBRANCH   5  10
BRANCH   1  21
ATOM     21  C1  <0> d          -6.065   3.589   3.142  0.00  0.00    -0.051 C 
ATOM     22  H2  <0> d          -6.437   3.929   4.119  0.00  0.00     0.033 H 
ATOM     23  H3  <0> d          -6.807   2.922   2.679  0.00  0.00     0.033 H 
ATOM     24  H4  <0> d          -5.898   4.459   2.490  0.00  0.00     0.033 H 
ENDBRANCH   1  21
TORSDOF 5
