REMARK  3 active torsions:
REMARK  status: ('A' for Active; 'I' for Inactive)
REMARK    1  A    between atoms: C1_1  and  C2_2 
REMARK    2  A    between atoms: C2_2  and  C3_4 
REMARK    3  A    between atoms: C2_2  and  O2_9 
ROOT
ATOM      1  C3  <0> d           1.111   1.934   0.002  0.00  0.00    -0.006 A 
ATOM      2  C4  <0> d          -0.013   1.076   0.008  0.00  0.00    -0.051 A 
ATOM      3  C5  <0> d          -1.103   1.863   0.017  0.00  0.00     0.019 A 
ATOM      4  O1  <0> d          -0.702   3.144   0.024  0.00  0.00    -0.334 OA
ATOM      5  C6  <0> d           0.640   3.193   0.012  0.00  0.00     0.027 A 
ATOM      6  H5  <0> d           0.002  -0.004   0.002  0.00  0.00     0.087 H 
ATOM      7  H6  <0> d          -2.128   1.522   0.020  0.00  0.00     0.123 H 
ATOM      8  H7  <0> d           1.239   4.092   0.011  0.00  0.00     0.124 H 
ENDROOT
BRANCH   1   9
ATOM      9  C2  <0> d           2.559   1.517  -0.014  0.00  0.00     0.059 C 
ATOM     10  H1  <0> d           2.647   0.524  -0.455  0.00  0.00     0.090 H 
BRANCH   9  11
ATOM     11  C1  <0> d           3.098   1.489   1.418  0.00  0.00    -0.049 C 
ATOM     12  H2  <0> d           2.521   0.777   2.009  0.00  0.00     0.031 H 
ATOM     13  H3  <0> d           4.145   1.187   1.406  0.00  0.00     0.031 H 
ATOM     14  H4  <0> d           3.011   2.482   1.858  0.00  0.00     0.031 H 
ENDBRANCH   9  11
BRANCH   9  15
ATOM     15  O2  <0> d           3.315   2.450  -0.789  0.00  0.00    -0.391 OA
ATOM     16  H8  <0> d           3.283   3.356  -0.455  0.00  0.00     0.210 HD
ENDBRANCH   9  15
ENDBRANCH   1   9
TORSDOF 3
