REMARK  9 active torsions:
REMARK  status: ('A' for Active; 'I' for Inactive)
REMARK    1  A    between atoms: C1_1  and  C2_2 
REMARK    2  A    between atoms: C2_2  and  O1_3 
REMARK    3  A    between atoms: O1_3  and  C3_4 
REMARK    4  A    between atoms: C3_4  and  C4_5 
REMARK    5  A    between atoms: C4_5  and  C5_6 
REMARK    6  A    between atoms: C5_6  and  C6_7 
REMARK    7  A    between atoms: C6_7  and  O2_8 
REMARK    8  A    between atoms: O2_8  and  C7_9 
REMARK    9  A    between atoms: C7_9  and  C8_10 
ROOT
ATOM      1  C4  <0> d          -0.013   1.076   0.008  0.00  0.00     0.032 C 
ATOM      2  H8  <0> d           0.002  -0.004   0.002  0.00  0.00     0.063 H 
ENDROOT
BRANCH   1   3
ATOM      3  C3  <0> d          -1.328   1.812   0.018  0.00  0.00     0.033 C 
ATOM      4  H6  <0> d          -1.853   1.605   0.951  0.00  0.00     0.076 H 
ATOM      5  H7  <0> d          -1.145   2.883  -0.066  0.00  0.00     0.076 H 
BRANCH   3   6
ATOM      6  O1  <0> d          -2.126   1.376  -1.084  0.00  0.00    -0.390 OA
BRANCH   6   7
ATOM      7  C2  <0> d          -3.401   2.015  -1.167  0.00  0.00     0.016 C 
ATOM      8  H4  <0> d          -3.969   1.813  -0.259  0.00  0.00     0.073 H 
ATOM      9  H5  <0> d          -3.262   3.091  -1.276  0.00  0.00     0.073 H 
BRANCH   7  10
ATOM     10  C1  <0> d          -4.165   1.474  -2.377  0.00  0.00    -0.056 C 
ATOM     11  H1  <0> d          -5.138   1.962  -2.441  0.00  0.00     0.030 H 
ATOM     12  H2  <0> d          -3.598   1.677  -3.285  0.00  0.00     0.030 H 
ATOM     13  H3  <0> d          -4.304   0.399  -2.268  0.00  0.00     0.030 H 
ENDBRANCH   7  10
ENDBRANCH   6   7
ENDBRANCH   3   6
ENDBRANCH   1   3
BRANCH   1  14
ATOM     14  C5  <0> d           1.110   1.745   0.001  0.00  0.00    -0.140 C 
BRANCH  14  15
ATOM     15  C6  <0> d           2.233   2.413  -0.006  0.00  0.00     0.120 C 
ATOM     16  H9  <0> d           2.706   2.685   0.926  0.00  0.00     0.107 H 
BRANCH  15  17
ATOM     17  O2  <0> d           2.803   2.766  -1.182  0.00  0.00    -0.371 OA
BRANCH  17  18
ATOM     18  C7  <0> d           4.030   3.496  -1.115  0.00  0.00     0.018 C 
ATOM     19  H10 <0> d           3.868   4.429  -0.576  0.00  0.00     0.073 H 
ATOM     20  H11 <0> d           4.779   2.900  -0.593  0.00  0.00     0.073 H 
BRANCH  18  21
ATOM     21  C8  <0> d           4.519   3.803  -2.531  0.00  0.00    -0.056 C 
ATOM     22  H12 <0> d           5.455   4.359  -2.480  0.00  0.00     0.030 H 
ATOM     23  H13 <0> d           4.681   2.869  -3.070  0.00  0.00     0.030 H 
ATOM     24  H14 <0> d           3.770   4.398  -3.053  0.00  0.00     0.030 H 
ENDBRANCH  18  21
ENDBRANCH  17  18
ENDBRANCH  15  17
ENDBRANCH  14  15
ENDBRANCH   1  14
TORSDOF 9
