REMARK  5 active torsions:
REMARK  status: ('A' for Active; 'I' for Inactive)
REMARK    1  A    between atoms: C1_1  and  C2_2 
REMARK    2  A    between atoms: C5_5  and  C6_7 
REMARK    3  A    between atoms: C7_8  and  C8_9 
REMARK    4  A    between atoms: C7_8  and  C9_10 
REMARK    5  A    between atoms: C9_10  and  O2_11 
ROOT
ATOM      1  C6  <0> d          -2.309   1.060   4.497  0.00  0.00    -0.046 C 
ATOM      2  C7  <0> d          -2.680  -0.216   4.552  0.00  0.00    -0.058 C 
ATOM      3  H6  <0> d          -2.802   1.804   5.140  0.00  0.00     0.088 H 
ENDROOT
BRANCH   1   4
ATOM      4  C5  <0> d          -1.242   1.476   3.575  0.00  0.00     0.076 A 
ATOM      5  C4  <0> d          -0.845   2.758   3.336  0.00  0.00    -0.048 A 
ATOM      6  C3  <0> d           0.202   2.690   2.396  0.00  0.00    -0.052 A 
ATOM      7  H5  <0> d          -1.252   3.652   3.784  0.00  0.00     0.087 H 
ATOM      8  C2  <0> d           0.386   1.387   2.103  0.00  0.00     0.050 A 
ATOM      9  H4  <0> d           0.751   3.524   1.986  0.00  0.00     0.087 H 
ATOM     10  O1  <0> d          -0.485   0.657   2.819  0.00  0.00    -0.316 OA
BRANCH   8  11
ATOM     11  C1  <0> d           1.405   0.840   1.137  0.00  0.00    -0.031 C 
ATOM     12  H1  <0> d           1.977   1.671   0.698  0.00  0.00     0.036 H 
ATOM     13  H2  <0> d           0.891   0.286   0.337  0.00  0.00     0.036 H 
ATOM     14  H3  <0> d           2.090   0.164   1.670  0.00  0.00     0.036 H 
ENDBRANCH   8  11
ENDBRANCH   1   4
BRANCH   2  15
ATOM     15  C8  <0> d          -2.114  -1.208   3.570  0.00  0.00    -0.052 C 
ATOM     16  H7  <0> d          -2.535  -2.204   3.771  0.00  0.00     0.033 H 
ATOM     17  H8  <0> d          -1.020  -1.245   3.674  0.00  0.00     0.033 H 
ATOM     18  H9  <0> d          -2.374  -0.900   2.546  0.00  0.00     0.033 H 
ENDBRANCH   2  15
BRANCH   2  19
ATOM     19  C9  <0> d          -3.666  -0.669   5.598  0.00  0.00     0.037 C 
ATOM     20  H10 <0> d          -4.554  -1.092   5.105  0.00  0.00     0.081 H 
ATOM     21  H11 <0> d          -3.199  -1.436   6.234  0.00  0.00     0.081 H 
BRANCH  19  22
ATOM     22  O2  <0> d          -4.053   0.446   6.403  0.00  0.00    -0.397 OA
ATOM     23  H12 <0> d          -4.772   0.308   7.224  0.00  0.00     0.209 HD
ENDBRANCH  19  22
ENDBRANCH   2  19
TORSDOF 5
