REMARK  4 active torsions:
REMARK  status: ('A' for Active; 'I' for Inactive)
REMARK    1  A    between atoms: C2_2  and  N5_10 
REMARK    2  A    between atoms: C3_3  and  N4_9 
REMARK    3  A    between atoms: C4_5  and  N3_8 
REMARK    4  A    between atoms: C5_6  and  N2_7 
ROOT
ATOM      1  C1  <0> d          -0.017   1.386   0.010  0.00  0.00    -0.025 A 
ATOM      2  C2  <0> d           1.196   2.065   0.002  0.00  0.00     0.074 A 
ATOM      3  C3  <0> d           2.384   1.336  -0.013  0.00  0.00     0.150 A 
ATOM      4  N1  <0> d           2.365   0.012  -0.021  0.00  0.00    -0.210 NA
ATOM      5  C4  <0> d           1.228  -0.667  -0.014  0.00  0.00     0.150 A 
ATOM      6  C5  <0> d           0.002  -0.004   0.002  0.00  0.00     0.074 A 
ATOM      7  H1  <0> d          -0.952   1.926   0.026  0.00  0.00     0.090 H 
ENDROOT
BRANCH   2   8
ATOM      8  N5  <0> d           1.225   3.469   0.009  0.00  0.00    -0.396 N 
ATOM      9  H8  <0> d           0.395   3.970   0.019  0.00  0.00     0.156 HD
ATOM     10  H9  <0> d           2.075   3.936   0.003  0.00  0.00     0.156 HD
ENDBRANCH   2   8
BRANCH   3  11
ATOM     11  N4  <0> d           3.607   2.008  -0.022  0.00  0.00    -0.382 N 
ATOM     12  H6  <0> d           3.627   2.978  -0.017  0.00  0.00     0.157 HD
ATOM     13  H7  <0> d           4.437   1.506  -0.032  0.00  0.00     0.157 HD
ENDBRANCH   3  11
BRANCH   6  14
ATOM     14  N2  <0> d          -1.199  -0.731   0.010  0.00  0.00    -0.396 N 
ATOM     15  H2  <0> d          -2.048  -0.263   0.021  0.00  0.00     0.156 HD
ATOM     16  H3  <0> d          -1.179  -1.701   0.005  0.00  0.00     0.156 HD
ENDBRANCH   6  14
BRANCH   5  17
ATOM     17  N3  <0> d           1.258  -2.063  -0.022  0.00  0.00    -0.382 N 
ATOM     18  H4  <0> d           2.108  -2.530  -0.033  0.00  0.00     0.157 HD
ATOM     19  H5  <0> d           0.428  -2.566  -0.017  0.00  0.00     0.157 HD
ENDBRANCH   5  17
TORSDOF 4
