REMARK  1 active torsions:
REMARK  status: ('A' for Active; 'I' for Inactive)
REMARK    1  A    between atoms: C3_3  and  N1_10 
ROOT
ATOM      1  C1  <0> d          -0.017   1.376   0.010  0.00  0.00    -0.078 A 
ATOM      2  C2  <0> d           1.165   2.091   0.002  0.00  0.00    -0.057 A 
ATOM      3  C3  <0> d           2.380   1.415  -0.017  0.00  0.00     0.034 A 
ATOM      4  C4  <0> d           2.397   0.031  -0.028  0.00  0.00     0.003 A 
ATOM      5  C5  <0> d           1.214  -0.693  -0.013  0.00  0.00     0.077 A 
ATOM      6  C6  <0> d           0.002  -0.004   0.002  0.00  0.00    -0.050 A 
ATOM      7  O1  <0> d           1.456  -2.033  -0.004  0.00  0.00    -0.350 OA
ATOM      8  C7  <0> d           2.798  -2.274  -0.458  0.00  0.00     0.030 C 
ATOM      9  C8  <0> d           3.533  -0.972  -0.060  0.00  0.00    -0.016 C 
ATOM     10  H1  <0> d          -0.961   1.899   0.026  0.00  0.00     0.083 H 
ATOM     11  H2  <0> d           1.145   3.171   0.011  0.00  0.00     0.086 H 
ATOM     12  H3  <0> d          -0.928  -0.553   0.008  0.00  0.00     0.087 H 
ATOM     13  H4  <0> d           3.230  -3.134   0.055  0.00  0.00     0.075 H 
ATOM     14  H5  <0> d           2.821  -2.416  -1.538  0.00  0.00     0.075 H 
ATOM     15  H6  <0> d           4.274  -0.698  -0.811  0.00  0.00     0.043 H 
ATOM     16  H7  <0> d           3.994  -1.070   0.923  0.00  0.00     0.043 H 
ENDROOT
BRANCH   3  17
ATOM     17  N1  <0> d           3.579   2.131  -0.027  0.00  0.00    -0.399 N 
ATOM     18  H8  <0> d           3.566   3.100  -0.020  0.00  0.00     0.156 HD
ATOM     19  H9  <0> d           4.426   1.657  -0.040  0.00  0.00     0.156 HD
ENDBRANCH   3  17
TORSDOF 1
