REMARK  4 active torsions:
REMARK  status: ('A' for Active; 'I' for Inactive)
REMARK    1  A    between atoms: C1_1  and  C2_2 
REMARK    2  A    between atoms: C2_2  and  C7_12 
REMARK    3  A    between atoms: C4_5  and  C5_8 
REMARK    4  A    between atoms: C5_8  and  C6_9 
REMARK       I    between atoms: C6_9  and  N1_11 
ROOT
ATOM      1  C2  <0> d          -0.192  -1.818  -1.377  0.00  0.00     0.157 C 
ATOM      2  O1  <0> d          -1.327  -1.866  -0.503  0.00  0.00    -0.353 OA
ATOM      3  C3  <0> d          -1.430  -0.579   0.139  0.00  0.00     0.048 C 
ATOM      4  C4  <0> d           0.002  -0.004   0.002  0.00  0.00     0.070 C 
ATOM      5  H1  <0> d           0.653  -0.388   0.787  0.00  0.00     0.087 H 
ATOM      6  O2  <0> d           0.400  -0.510  -1.295  0.00  0.00    -0.348 OA
ATOM      7  H5  <0> d          -1.701  -0.692   1.188  0.00  0.00     0.078 H 
ATOM      8  H6  <0> d          -2.150   0.054  -0.380  0.00  0.00     0.078 H 
ENDROOT
BRANCH   4   9
ATOM      9  C5  <0> d          -0.019   1.526   0.010  0.00  0.00     0.035 C 
ATOM     10  H7  <0> d          -0.546   1.887  -0.873  0.00  0.00     0.051 H 
ATOM     11  H8  <0> d          -0.529   1.877   0.907  0.00  0.00     0.051 H 
BRANCH   9  12
ATOM     12  C6  <0> d           1.395   2.047  -0.000  0.00  0.00     0.217 C 
ATOM     13  O3  <0> d           2.328   1.272  -0.013  0.00  0.00    -0.274 OA
ATOM     14  N1  <0> d           1.623   3.376   0.005  0.00  0.00    -0.370 N 
ATOM     15  H9  <0> d           0.878   3.996   0.015  0.00  0.00     0.159 HD
ATOM     16  H10 <0> d           2.533   3.711  -0.002  0.00  0.00     0.159 HD
ENDBRANCH   9  12
ENDBRANCH   4   9
BRANCH   1  17
ATOM     17  C1  <0> d           0.831  -2.872  -0.949  0.00  0.00    -0.026 C 
ATOM     18  H2  <0> d           0.385  -3.864  -1.026  0.00  0.00     0.035 H 
ATOM     19  H3  <0> d           1.704  -2.815  -1.599  0.00  0.00     0.035 H 
ATOM     20  H4  <0> d           1.133  -2.688   0.082  0.00  0.00     0.035 H 
ENDBRANCH   1  17
BRANCH   1  21
ATOM     21  C7  <0> d          -0.638  -2.088  -2.815  0.00  0.00    -0.026 C 
ATOM     22  H11 <0> d          -1.381  -1.347  -3.110  0.00  0.00     0.035 H 
ATOM     23  H12 <0> d           0.223  -2.025  -3.480  0.00  0.00     0.035 H 
ATOM     24  H13 <0> d          -1.075  -3.085  -2.879  0.00  0.00     0.035 H 
ENDBRANCH   1  21
TORSDOF 4
