REMARK  6 active torsions:
REMARK  status: ('A' for Active; 'I' for Inactive)
REMARK    1  A    between atoms: C1_1  and  C2_2 
REMARK    2  A    between atoms: C2_2  and  C3_3 
REMARK    3  A    between atoms: C3_3  and  C4_5 
REMARK    4  A    between atoms: C3_3  and  O1_8 
REMARK    5  A    between atoms: C4_5  and  C5_6 
REMARK    6  A    between atoms: C4_5  and  C6_7 
ROOT
ATOM      1  C3  <0> d          -0.729   1.579   1.267  0.00  0.00     0.038 C 
ATOM      2  H1  <0> d          -1.776   1.277   1.232  0.00  0.00     0.083 H 
ENDROOT
BRANCH   1   3
ATOM      3  C2  <0> d          -0.013   1.086   0.008  0.00  0.00    -0.044 C 
ATOM      4  H5  <0> d           0.002  -0.004   0.002  0.00  0.00     0.036 H 
ATOM      5  H6  <0> d           1.010   1.463   0.000  0.00  0.00     0.036 H 
BRANCH   3   6
ATOM      6  C1  <0> d          -0.753   1.593  -1.232  0.00  0.00    -0.074 C 
ATOM      7  H2  <0> d          -1.775   1.215  -1.224  0.00  0.00     0.027 H 
ATOM      8  H3  <0> d          -0.767   2.683  -1.226  0.00  0.00     0.027 H 
ATOM      9  H4  <0> d          -0.242   1.241  -2.128  0.00  0.00     0.027 H 
ENDBRANCH   3   6
ENDBRANCH   1   3
BRANCH   1  10
ATOM     10  C4  <0> d          -0.064   0.971   2.503  0.00  0.00    -0.036 C 
ATOM     11  H7  <0> d          -0.047  -0.115   2.410  0.00  0.00     0.042 H 
BRANCH  10  12
ATOM     12  C5  <0> d           1.369   1.495   2.621  0.00  0.00    -0.071 C 
ATOM     13  H8  <0> d           1.352   2.581   2.714  0.00  0.00     0.028 H 
ATOM     14  H9  <0> d           1.843   1.062   3.502  0.00  0.00     0.028 H 
ATOM     15  H10 <0> d           1.933   1.215   1.731  0.00  0.00     0.028 H 
ENDBRANCH  10  12
BRANCH  10  16
ATOM     16  C6  <0> d          -0.855   1.364   3.753  0.00  0.00    -0.071 C 
ATOM     17  H11 <0> d          -1.875   0.991   3.669  0.00  0.00     0.028 H 
ATOM     18  H12 <0> d          -0.381   0.931   4.634  0.00  0.00     0.028 H 
ATOM     19  H13 <0> d          -0.871   2.450   3.846  0.00  0.00     0.028 H 
ENDBRANCH  10  16
ENDBRANCH   1  10
BRANCH   1  20
ATOM     20  O1  <0> d          -0.647   3.004   1.334  0.00  0.00    -0.395 OA
ATOM     21  H14 <0> d           0.258   3.345   1.368  0.00  0.00     0.210 HD
ENDBRANCH   1  20
TORSDOF 6
