REMARK  0 active torsions:
REMARK  status: ('A' for Active; 'I' for Inactive)
ROOT
ATOM      1  C1  <0> d          -1.066   2.425   0.030  0.00  0.00    -0.055 A 
ATOM      2  C2  <0> d          -0.713   3.725   0.029  0.00  0.00    -0.019 A 
ATOM      3  N1  <0> d           0.599   4.099   0.018  0.00  0.00    -0.331 N 
ATOM      4  H1  <0> d           0.867   5.165   0.021  0.00  0.00     0.168 HD
ATOM      5  C3  <0> d           1.600   3.200   0.004  0.00  0.00     0.280 A 
ATOM      6  O1  <0> d           2.759   3.583  -0.005  0.00  0.00    -0.265 OA
ATOM      7  C4  <0> d           1.319   1.822  -0.001  0.00  0.00     0.153 A 
ATOM      8  C5  <0> d          -0.017   1.410   0.010  0.00  0.00     0.006 A 
ATOM      9  C6  <0> d           0.002  -0.004   0.002  0.00  0.00    -0.049 A 
ATOM     10  C7  <0> d           1.294  -0.379  -0.012  0.00  0.00     0.020 A 
ATOM     11  O2  <0> d           2.080   0.710  -0.014  0.00  0.00    -0.316 OA
ATOM     12  H2  <0> d          -2.107   2.138   0.044  0.00  0.00     0.087 H 
ATOM     13  H3  <0> d          -1.481   4.484   0.041  0.00  0.00     0.111 H 
ATOM     14  H4  <0> d          -0.857  -0.659   0.006  0.00  0.00     0.087 H 
ATOM     15  H5  <0> d           1.646  -1.400  -0.021  0.00  0.00     0.123 H 
ENDROOT
TORSDOF 0
