REMARK  1 active torsions:
REMARK  status: ('A' for Active; 'I' for Inactive)
REMARK    1  A    between atoms: C4_4  and  N1_7 
ROOT
ATOM      1  C1  <0> d          -5.066   0.490   0.026  0.00  0.00    -0.083 A 
ATOM      2  C2  <0> d          -4.809   1.849   0.032  0.00  0.00    -0.081 A 
ATOM      3  C3  <0> d          -3.506   2.306   0.029  0.00  0.00    -0.057 A 
ATOM      4  C4  <0> d          -2.454   1.400   0.020  0.00  0.00     0.038 A 
ATOM      5  C5  <0> d          -2.715   0.037   0.008  0.00  0.00    -0.057 A 
ATOM      6  C6  <0> d          -4.020  -0.415   0.017  0.00  0.00    -0.081 A 
ATOM      7  H1  <0> d          -6.086   0.135   0.029  0.00  0.00     0.083 H 
ATOM      8  H2  <0> d          -5.628   2.553   0.039  0.00  0.00     0.083 H 
ATOM      9  H3  <0> d          -3.305   3.367   0.034  0.00  0.00     0.086 H 
ATOM     10  H4  <0> d          -1.899  -0.670  -0.004  0.00  0.00     0.086 H 
ATOM     11  H5  <0> d          -4.224  -1.475   0.013  0.00  0.00     0.083 H 
ENDROOT
BRANCH   4  12
ATOM     12  N1  <0> d          -1.130   1.861   0.017  0.00  0.00    -0.333 N 
ATOM     13  C10 <0> d          -0.743   3.171   0.025  0.00  0.00    -0.015 A 
ATOM     14  C9  <0> d           0.605   3.212   0.013  0.00  0.00    -0.066 A 
ATOM     15  H9  <0> d          -1.402   4.026   0.035  0.00  0.00     0.112 H 
ATOM     16  C8  <0> d           1.069   1.881   0.002  0.00  0.00    -0.066 A 
ATOM     17  H8  <0> d           1.217   4.102   0.012  0.00  0.00     0.085 H 
ATOM     18  C7  <0> d          -0.013   1.076   0.008  0.00  0.00    -0.015 A 
ATOM     19  H7  <0> d           2.101   1.565  -0.010  0.00  0.00     0.085 H 
ATOM     20  H6  <0> d           0.002  -0.004   0.002  0.00  0.00     0.112 H 
ENDBRANCH   4  12
TORSDOF 1
