REMARK  2 active torsions:
REMARK  status: ('A' for Active; 'I' for Inactive)
REMARK    1  A    between atoms: C1_1  and  C2_2 
REMARK    2  A    between atoms: C2_2  and  C3_3 
ROOT
ATOM      1  C2  <0> d           0.002  -0.004   0.002  0.00  0.00    -0.020 C 
ATOM      2  H4  <0> d           0.512  -0.356  -0.895  0.00  0.00     0.042 H 
ATOM      3  H5  <0> d           0.529  -0.365   0.885  0.00  0.00     0.042 H 
ENDROOT
BRANCH   1   4
ATOM      4  C1  <0> d          -0.019   1.526   0.010  0.00  0.00    -0.071 C 
ATOM      5  H1  <0> d           1.004   1.903   0.003  0.00  0.00     0.028 H 
ATOM      6  H2  <0> d          -0.546   1.887  -0.873  0.00  0.00     0.028 H 
ATOM      7  H3  <0> d          -0.529   1.877   0.907  0.00  0.00     0.028 H 
ENDBRANCH   1   4
BRANCH   1   8
ATOM      8  C3  <0> d          -1.412  -0.526   0.013  0.00  0.00     0.101 A 
ATOM      9  N1  <0> d          -2.214  -0.813  -0.992  0.00  0.00    -0.144 NA
ATOM     10  N2  <0> d          -3.376  -1.244  -0.747  0.00  0.00    -0.113 NA
ATOM     11  C4  <0> d          -3.811  -1.415   0.485  0.00  0.00     0.264 A 
ATOM     12  S1  <0> d          -2.472  -0.937   1.392  0.00  0.00    -0.023 SA
ATOM     13  O1  <0> d          -5.017  -1.863   0.913  0.00  0.00    -0.160 OA
ENDBRANCH   1   8
TORSDOF 2
