REMARK  2 active torsions:
REMARK  status: ('A' for Active; 'I' for Inactive)
REMARK    1  A    between atoms: C1_1  and  C2_2 
REMARK    2  A    between atoms: C10_11  and  C11_12 
ROOT
ATOM      1  C2  <0> d           1.179   2.064   0.002  0.00  0.00    -0.037 A 
ATOM      2  C3  <0> d          -0.017   1.403   0.010  0.00  0.00    -0.063 A 
ATOM      3  C4  <0> d           0.002  -0.004   0.002  0.00  0.00    -0.007 A 
ATOM      4  C5  <0> d          -1.187  -0.751   0.009  0.00  0.00    -0.071 A 
ATOM      5  C6  <0> d          -1.127  -2.111   0.001  0.00  0.00    -0.082 A 
ATOM      6  C7  <0> d           0.100  -2.773  -0.015  0.00  0.00    -0.081 A 
ATOM      7  C8  <0> d           1.271  -2.080  -0.021  0.00  0.00    -0.054 A 
ATOM      8  C9  <0> d           1.251  -0.674  -0.013  0.00  0.00     0.067 A 
ATOM      9  N1  <0> d           2.385   0.033  -0.021  0.00  0.00    -0.253 NA
ATOM     10  C10 <0> d           2.371   1.344  -0.013  0.00  0.00     0.037 A 
ATOM     11  H4  <0> d          -0.951   1.946   0.017  0.00  0.00     0.085 H 
ATOM     12  H5  <0> d          -2.143  -0.250   0.021  0.00  0.00     0.084 H 
ATOM     13  H6  <0> d          -2.041  -2.686   0.005  0.00  0.00     0.083 H 
ATOM     14  H7  <0> d           0.122  -3.853  -0.020  0.00  0.00     0.083 H 
ATOM     15  H8  <0> d           2.213  -2.608  -0.033  0.00  0.00     0.087 H 
ENDROOT
BRANCH   1  16
ATOM     16  C1  <0> d           1.208   3.571   0.009  0.00  0.00    -0.049 C 
ATOM     17  H1  <0> d           1.224   3.929   1.038  0.00  0.00     0.033 H 
ATOM     18  H2  <0> d           2.100   3.919  -0.511  0.00  0.00     0.033 H 
ATOM     19  H3  <0> d           0.320   3.954  -0.494  0.00  0.00     0.033 H 
ENDBRANCH   1  16
BRANCH  10  20
ATOM     20  C11 <0> d           3.679   2.091  -0.022  0.00  0.00    -0.035 C 
ATOM     21  H9  <0> d           3.985   2.277  -1.052  0.00  0.00     0.035 H 
ATOM     22  H10 <0> d           3.558   3.042   0.498  0.00  0.00     0.035 H 
ATOM     23  H11 <0> d           4.441   1.496   0.481  0.00  0.00     0.035 H 
ENDBRANCH  10  20
TORSDOF 2
