REMARK  3 active torsions:
REMARK  status: ('A' for Active; 'I' for Inactive)
REMARK    1  A    between atoms: C1_1  and  C2_2 
REMARK    2  A    between atoms: C4_4  and  C6_9 
REMARK    3  A    between atoms: C5_5  and  N3_8 
REMARK       I    between atoms: C6_9  and  N4_11 
ROOT
ATOM      1  C2  <0> d           1.114   1.722  -0.017  0.00  0.00     0.054 A 
ATOM      2  C3  <0> d          -0.114   1.080  -0.004  0.00  0.00    -0.039 A 
ATOM      3  C4  <0> d          -1.267   1.873   0.025  0.00  0.00     0.080 A 
ATOM      4  C5  <0> d          -1.098   3.270   0.049  0.00  0.00     0.159 A 
ATOM      5  N1  <0> d           0.127   3.779   0.033  0.00  0.00    -0.131 NA
ATOM      6  N2  <0> d           1.174   3.039   0.001  0.00  0.00    -0.153 NA
ATOM      7  H4  <0> d          -0.179   0.002  -0.019  0.00  0.00     0.088 H 
ENDROOT
BRANCH   3   8
ATOM      8  C6  <0> d          -2.614   1.265   0.035  0.00  0.00     0.253 C 
ATOM      9  O1  <0> d          -3.600   1.971  -0.046  0.00  0.00    -0.268 OA
ATOM     10  N4  <0> d          -2.748  -0.072   0.134  0.00  0.00    -0.366 N 
ATOM     11  H7  <0> d          -1.961  -0.636   0.199  0.00  0.00     0.159 HD
ATOM     12  H8  <0> d          -3.632  -0.472   0.141  0.00  0.00     0.159 HD
ENDBRANCH   3   8
BRANCH   4  13
ATOM     13  N3  <0> d          -2.200   4.105   0.083  0.00  0.00    -0.382 N 
ATOM     14  H5  <0> d          -2.080   5.064   0.173  0.00  0.00     0.157 HD
ATOM     15  H6  <0> d          -3.093   3.733   0.017  0.00  0.00     0.157 HD
ENDBRANCH   4  13
BRANCH   1  16
ATOM     16  C1  <0> d           2.385   0.912  -0.054  0.00  0.00    -0.034 C 
ATOM     17  H1  <0> d           2.671   0.733  -1.091  0.00  0.00     0.035 H 
ATOM     18  H2  <0> d           3.179   1.460   0.453  0.00  0.00     0.035 H 
ATOM     19  H3  <0> d           2.223  -0.041   0.448  0.00  0.00     0.035 H 
ENDBRANCH   1  16
TORSDOF 3
