REMARK  9 active torsions:
REMARK  status: ('A' for Active; 'I' for Inactive)
REMARK    1  A    between atoms: C1_1  and  C2_2 
REMARK    2  A    between atoms: C2_2  and  C3_4 
REMARK    3  A    between atoms: C2_2  and  O1_11 
REMARK    4  A    between atoms: C3_4  and  C4_5 
REMARK    5  A    between atoms: C3_4  and  C5_6 
REMARK    6  A    between atoms: C3_4  and  C6_7 
REMARK    7  A    between atoms: C6_7  and  C7_8 
REMARK    8  A    between atoms: C7_8  and  C8_9 
REMARK    9  A    between atoms: C7_8  and  C9_10 
ROOT
ATOM      1  C3  <0> d           0.331  -0.298  -0.991  0.00  0.00    -0.022 C 
ENDROOT
BRANCH   1   2
ATOM      2  C2  <0> d          -0.426   0.117   0.273  0.00  0.00     0.038 C 
ATOM      3  H1  <0> d          -0.188  -0.573   1.082  0.00  0.00     0.083 H 
BRANCH   2   4
ATOM      4  C1  <0> d          -0.012   1.534   0.672  0.00  0.00    -0.052 C 
ATOM      5  H2  <0> d           1.060   1.558   0.867  0.00  0.00     0.030 H 
ATOM      6  H3  <0> d          -0.250   2.224  -0.137  0.00  0.00     0.030 H 
ATOM      7  H4  <0> d          -0.551   1.830   1.572  0.00  0.00     0.030 H 
ENDBRANCH   2   4
BRANCH   2   8
ATOM      8  O1  <0> d          -1.832   0.085   0.018  0.00  0.00    -0.395 OA
ATOM      9  H20 <0> d          -2.375   0.338   0.777  0.00  0.00     0.210 HD
ENDBRANCH   2   8
ENDBRANCH   1   2
BRANCH   1  10
ATOM     10  C4  <0> d          -0.084  -1.716  -1.391  0.00  0.00    -0.067 C 
ATOM     11  H5  <0> d          -1.150  -1.849  -1.207  0.00  0.00     0.028 H 
ATOM     12  H6  <0> d           0.125  -1.871  -2.449  0.00  0.00     0.028 H 
ATOM     13  H7  <0> d           0.479  -2.439  -0.800  0.00  0.00     0.028 H 
ENDBRANCH   1  10
BRANCH   1  14
ATOM     14  C5  <0> d          -0.004   0.670  -2.127  0.00  0.00    -0.067 C 
ATOM     15  H8  <0> d           0.405   1.654  -1.897  0.00  0.00     0.028 H 
ATOM     16  H9  <0> d           0.432   0.304  -3.057  0.00  0.00     0.028 H 
ATOM     17  H10 <0> d          -1.086   0.742  -2.236  0.00  0.00     0.028 H 
ENDBRANCH   1  14
BRANCH   1  18
ATOM     18  C6  <0> d           1.836  -0.265  -0.718  0.00  0.00    -0.054 C 
ATOM     19  H11 <0> d           2.130   0.745  -0.431  0.00  0.00     0.034 H 
ATOM     20  H12 <0> d           2.074  -0.956   0.090  0.00  0.00     0.034 H 
BRANCH  18  21
ATOM     21  C7  <0> d           2.592  -0.677  -1.982  0.00  0.00    -0.060 C 
ATOM     22  H13 <0> d           2.122  -0.219  -2.853  0.00  0.00     0.038 H 
BRANCH  21  23
ATOM     23  C8  <0> d           4.046  -0.208  -1.882  0.00  0.00    -0.073 C 
ATOM     24  H14 <0> d           4.069   0.865  -1.697  0.00  0.00     0.028 H 
ATOM     25  H15 <0> d           4.540  -0.730  -1.062  0.00  0.00     0.028 H 
ATOM     26  H16 <0> d           4.563  -0.427  -2.816  0.00  0.00     0.028 H 
ENDBRANCH  21  23
BRANCH  21  27
ATOM     27  C9  <0> d           2.556  -2.200  -2.125  0.00  0.00    -0.073 C 
ATOM     28  H17 <0> d           1.546  -2.516  -2.388  0.00  0.00     0.028 H 
ATOM     29  H18 <0> d           3.248  -2.508  -2.908  0.00  0.00     0.028 H 
ATOM     30  H19 <0> d           2.847  -2.660  -1.181  0.00  0.00     0.028 H 
ENDBRANCH  21  27
ENDBRANCH  18  21
ENDBRANCH   1  18
TORSDOF 9
