REMARK  4 active torsions:
REMARK  status: ('A' for Active; 'I' for Inactive)
REMARK    1  A    between atoms: C1_1  and  C2_2 
REMARK    2  A    between atoms: C2_2  and  C3_3 
REMARK    3  A    between atoms: C2_2  and  C4_4 
REMARK    4  A    between atoms: C4_4  and  O1_10 
ROOT
ATOM      1  C4  <0> d           0.002  -0.004   0.002  0.00  0.00     0.061 C 
ATOM      2  C5  <0> d          -1.429  -0.533  -0.113  0.00  0.00    -0.036 C 
ATOM      3  C6  <0> d          -1.408  -2.063  -0.121  0.00  0.00    -0.062 C 
ATOM      4  C7  <0> d          -0.779  -2.571   1.177  0.00  0.00    -0.065 C 
ATOM      5  C8  <0> d           0.652  -2.043   1.292  0.00  0.00    -0.062 C 
ATOM      6  C9  <0> d           0.631  -0.513   1.301  0.00  0.00    -0.036 C 
ATOM      7  H8  <0> d          -2.021  -0.179   0.744  0.00  0.00     0.037 H 
ATOM      8  H9  <0> d          -1.881  -0.167  -1.047  0.00  0.00     0.037 H 
ATOM      9  H10 <0> d          -2.437  -2.443  -0.204  0.00  0.00     0.033 H 
ATOM     10  H11 <0> d          -0.817  -2.417  -0.979  0.00  0.00     0.033 H 
ATOM     11  H12 <0> d          -1.371  -2.217   2.034  0.00  0.00     0.033 H 
ATOM     12  H13 <0> d          -0.764  -3.671   1.171  0.00  0.00     0.033 H 
ATOM     13  H14 <0> d           1.104  -2.408   2.226  0.00  0.00     0.033 H 
ATOM     14  H15 <0> d           1.243  -2.397   0.435  0.00  0.00     0.033 H 
ATOM     15  H16 <0> d           1.660  -0.132   1.383  0.00  0.00     0.037 H 
ATOM     16  H17 <0> d           0.039  -0.159   2.158  0.00  0.00     0.037 H 
ENDROOT
BRANCH   1  17
ATOM     17  C2  <0> d          -0.019   1.526   0.010  0.00  0.00    -0.031 C 
ATOM     18  H4  <0> d           1.013   1.907   0.003  0.00  0.00     0.043 H 
BRANCH  17  19
ATOM     19  C1  <0> d          -0.759   2.033  -1.229  0.00  0.00    -0.070 C 
ATOM     20  H1  <0> d          -0.244   1.678  -2.134  0.00  0.00     0.028 H 
ATOM     21  H2  <0> d          -0.774   3.132  -1.223  0.00  0.00     0.028 H 
ATOM     22  H3  <0> d          -1.791   1.652  -1.221  0.00  0.00     0.028 H 
ENDBRANCH  17  19
BRANCH  17  23
ATOM     23  C3  <0> d          -0.735   2.019   1.269  0.00  0.00    -0.070 C 
ATOM     24  H5  <0> d          -0.203   1.655   2.160  0.00  0.00     0.028 H 
ATOM     25  H6  <0> d          -1.767   1.638   1.277  0.00  0.00     0.028 H 
ATOM     26  H7  <0> d          -0.750   3.119   1.275  0.00  0.00     0.028 H 
ENDBRANCH  17  23
ENDBRANCH   1  17
BRANCH   1  27
ATOM     27  O1  <0> d           0.771  -0.464  -1.111  0.00  0.00    -0.389 OA
ATOM     28  H18 <0> d           0.899  -1.543  -1.283  0.00  0.00     0.210 HD
ENDBRANCH   1  27
TORSDOF 4
