REMARK  3 active torsions:
REMARK  status: ('A' for Active; 'I' for Inactive)
REMARK    1  A    between atoms: C1_1  and  C2_2 
REMARK    2  A    between atoms: C2_2  and  C3_4 
REMARK    3  A    between atoms: C2_2  and  O1_11 
ROOT
ATOM      1  C3  <0> d          -1.218   1.751   0.017  0.00  0.00    -0.028 A 
ATOM      2  C4  <0> d          -1.237   3.133   0.029  0.00  0.00    -0.074 A 
ATOM      3  C5  <0> d          -0.050   3.841   0.022  0.00  0.00    -0.081 A 
ATOM      4  C6  <0> d           1.157   3.167   0.007  0.00  0.00    -0.062 A 
ATOM      5  C7  <0> d           1.176   1.784   0.000  0.00  0.00     0.034 A 
ATOM      6  C8  <0> d          -0.013   1.076   0.008  0.00  0.00    -0.053 A 
ATOM      7 Cl1  <0> d           2.691   0.937  -0.019  0.00  0.00    -0.084 Cl
ATOM      8  H5  <0> d          -2.180   3.660   0.040  0.00  0.00     0.084 H 
ATOM      9  H6  <0> d          -0.066   4.921   0.028  0.00  0.00     0.083 H 
ATOM     10  H7  <0> d           2.084   3.720   0.001  0.00  0.00     0.086 H 
ATOM     11  H8  <0> d           0.002  -0.004   0.002  0.00  0.00     0.087 H 
ENDROOT
BRANCH   1  12
ATOM     12  C2  <0> d          -2.513   0.979   0.019  0.00  0.00     0.057 C 
ATOM     13  H1  <0> d          -2.347  -0.009   0.447  0.00  0.00     0.089 H 
BRANCH  12  14
ATOM     14  C1  <0> d          -3.023   0.834  -1.416  0.00  0.00    -0.049 C 
ATOM     15  H2  <0> d          -2.282   0.300  -2.012  0.00  0.00     0.031 H 
ATOM     16  H3  <0> d          -3.959   0.277  -1.415  0.00  0.00     0.031 H 
ATOM     17  H4  <0> d          -3.189   1.823  -1.844  0.00  0.00     0.031 H 
ENDBRANCH  12  14
BRANCH  12  18
ATOM     18  O1  <0> d          -3.484   1.680   0.800  0.00  0.00    -0.391 OA
ATOM     19  H9  <0> d          -4.344   1.240   0.846  0.00  0.00     0.210 HD
ENDBRANCH  12  18
ENDBRANCH   1  12
TORSDOF 3
