REMARK  2 active torsions:
REMARK  status: ('A' for Active; 'I' for Inactive)
REMARK    1  A    between atoms: C1_1  and  N1_2 
REMARK    2  A    between atoms: C3_4  and  C5_7 
ROOT
ATOM      1  N1  <0> d          -0.698   1.558   1.213  0.00  0.00    -0.285 N 
ATOM      2  C2  <0> d          -0.117   1.823   2.401  0.00  0.00     0.011 A 
ATOM      3  C3  <0> d          -1.096   2.237   3.256  0.00  0.00     0.031 A 
ATOM      4  C4  <0> d          -2.314   2.219   2.549  0.00  0.00     0.035 A 
ATOM      5  N2  <0> d          -2.069   1.819   1.329  0.00  0.00    -0.185 NA
ATOM      6  H5  <0> d           0.933   1.725   2.634  0.00  0.00     0.115 H 
ATOM      7  H6  <0> d          -3.281   2.494   2.945  0.00  0.00     0.118 H 
ENDROOT
BRANCH   3   8
ATOM      8  C5  <0> d          -0.911   2.636   4.675  0.00  0.00     0.091 A 
ATOM      9  N4  <0> d           0.229   2.652   5.332  0.00  0.00    -0.175 NA
ATOM     10  N3  <0> d          -0.028   3.088   6.638  0.00  0.00    -0.289 N 
ATOM     11  C7  <0> d          -1.351   3.332   6.748  0.00  0.00    -0.002 A 
ATOM     12  H1  <0> d           0.651   3.199   7.364  0.00  0.00     0.188 HD
ATOM     13  C6  <0> d          -1.924   3.068   5.553  0.00  0.00    -0.036 A 
ATOM     14  H8  <0> d          -1.862   3.681   7.633  0.00  0.00     0.113 H 
ATOM     15  H7  <0> d          -2.972   3.169   5.314  0.00  0.00     0.089 H 
ENDBRANCH   3   8
BRANCH   1  16
ATOM     16  C1  <0> d          -0.013   1.086   0.008  0.00  0.00     0.002 C 
ATOM     17  H2  <0> d           0.002  -0.004   0.002  0.00  0.00     0.059 H 
ATOM     18  H3  <0> d           1.010   1.463   0.000  0.00  0.00     0.059 H 
ATOM     19  H4  <0> d          -0.540   1.447  -0.875  0.00  0.00     0.059 H 
ENDBRANCH   1  16
TORSDOF 2
