REMARK  5 active torsions:
REMARK  status: ('A' for Active; 'I' for Inactive)
REMARK    1  A    between atoms: C1_1  and  C2_2 
REMARK    2  A    between atoms: C2_2  and  C3_3 
REMARK    3  A    between atoms: C3_3  and  N1_4 
REMARK    4  A    between atoms: C5_6  and  C9_13 
REMARK    5  A    between atoms: C6_9  and  C8_12 
ROOT
ATOM      1  N1  <0> d           0.690  -0.478  -1.207  0.00  0.00     0.093 N 
ATOM      2  C4  <0> d          -0.075  -0.138  -2.415  0.00  0.00     0.137 C 
ATOM      3  C5  <0> d           0.704  -0.596  -3.651  0.00  0.00     0.061 C 
ATOM      4  H1  <0> d           1.688  -0.108  -3.708  0.00  0.00     0.085 H 
ATOM      5  O1  <0> d           0.965  -1.999  -3.552  0.00  0.00    -0.378 OA
ATOM      6  C6  <0> d           1.708  -2.365  -2.386  0.00  0.00     0.061 C 
ATOM      7  H2  <0> d           1.816  -3.459  -2.427  0.00  0.00     0.085 H 
ATOM      8  C7  <0> d           0.940  -1.925  -1.138  0.00  0.00     0.137 C 
ATOM      9  H10 <0> d          -1.051  -0.645  -2.386  0.00  0.00     0.083 H 
ATOM     10  H11 <0> d          -0.229   0.950  -2.458  0.00  0.00     0.083 H 
ATOM     11  H12 <0> d           1.533  -2.152  -0.240  0.00  0.00     0.083 H 
ATOM     12  H13 <0> d          -0.020  -2.461  -1.088  0.00  0.00     0.083 H 
ENDROOT
BRANCH   1  13
ATOM     13  C3  <0> d           0.002  -0.004   0.002  0.00  0.00     0.113 C 
ATOM     14  H8  <0> d           0.534  -0.368   0.893  0.00  0.00     0.079 H 
ATOM     15  H9  <0> d          -1.030  -0.385   0.010  0.00  0.00     0.079 H 
BRANCH  13  16
ATOM     16  C2  <0> d          -0.019   1.526   0.010  0.00  0.00    -0.043 C 
ATOM     17  H6  <0> d          -0.551   1.890  -0.881  0.00  0.00     0.035 H 
ATOM     18  H7  <0> d           1.013   1.907   0.003  0.00  0.00     0.035 H 
BRANCH  16  19
ATOM     19  C1  <0> d          -0.735   2.019   1.269  0.00  0.00    -0.075 C 
ATOM     20  H3  <0> d          -0.750   3.119   1.275  0.00  0.00     0.027 H 
ATOM     21  H4  <0> d          -0.203   1.655   2.160  0.00  0.00     0.027 H 
ATOM     22  H5  <0> d          -1.767   1.638   1.277  0.00  0.00     0.027 H 
ENDBRANCH  16  19
ENDBRANCH  13  16
ENDBRANCH   1  13
BRANCH   6  23
ATOM     23  C8  <0> d           3.075  -1.676  -2.414  0.00  0.00    -0.051 C 
ATOM     24  H14 <0> d           3.646  -1.958  -1.517  0.00  0.00     0.030 H 
ATOM     25  H15 <0> d           2.935  -0.585  -2.431  0.00  0.00     0.030 H 
ATOM     26  H16 <0> d           3.625  -1.990  -3.313  0.00  0.00     0.030 H 
ENDBRANCH   6  23
BRANCH   3  27
ATOM     27  C9  <0> d          -0.122  -0.318  -4.909  0.00  0.00    -0.051 C 
ATOM     28  H17 <0> d           0.439  -0.647  -5.796  0.00  0.00     0.030 H 
ATOM     29  H18 <0> d          -0.325   0.761  -4.983  0.00  0.00     0.030 H 
ATOM     30  H19 <0> d          -1.073  -0.867  -4.852  0.00  0.00     0.030 H 
ENDBRANCH   3  27
TORSDOF 5
