REMARK  4 active torsions:
REMARK  status: ('A' for Active; 'I' for Inactive)
REMARK    1  A    between atoms: C1_1  and  C2_2 
REMARK    2  A    between atoms: C2_2  and  C3_3 
REMARK    3  A    between atoms: C2_2  and  C4_4 
REMARK    4  A    between atoms: C4_4  and  C5_5 
ROOT
ATOM      1  C4  <0> d          -0.070   5.347   0.031  0.00  0.00    -0.038 C 
ATOM      2  H8  <0> d          -0.960   5.696   0.555  0.00  0.00     0.040 H 
ATOM      3  H9  <0> d           0.819   5.720   0.538  0.00  0.00     0.040 H 
ENDROOT
BRANCH   1   4
ATOM      4  C2  <0> d          -0.091   5.865  -1.409  0.00  0.00    -0.057 C 
ATOM      5  H4  <0> d           0.751   5.445  -1.958  0.00  0.00     0.039 H 
BRANCH   4   6
ATOM      6  C1  <0> d          -1.399   5.446  -2.082  0.00  0.00    -0.073 C 
ATOM      7  H1  <0> d          -1.414   5.815  -3.108  0.00  0.00     0.028 H 
ATOM      8  H2  <0> d          -1.474   4.359  -2.086  0.00  0.00     0.028 H 
ATOM      9  H3  <0> d          -2.242   5.866  -1.533  0.00  0.00     0.028 H 
ENDBRANCH   4   6
BRANCH   4  10
ATOM     10  C3  <0> d           0.014   7.391  -1.403  0.00  0.00    -0.073 C 
ATOM     11  H5  <0> d           0.946   7.690  -0.923  0.00  0.00     0.028 H 
ATOM     12  H6  <0> d          -0.001   7.760  -2.429  0.00  0.00     0.028 H 
ATOM     13  H7  <0> d          -0.829   7.811  -0.854  0.00  0.00     0.028 H 
ENDBRANCH   4  10
ENDBRANCH   1   4
BRANCH   1  14
ATOM     14  C5  <0> d          -0.050   3.840   0.023  0.00  0.00    -0.058 A 
ATOM     15  C10 <0> d          -1.238   3.133   0.030  0.00  0.00    -0.077 A 
ATOM     16  C9  <0> d          -1.219   1.751   0.017  0.00  0.00    -0.082 A 
ATOM     17  H14 <0> d          -2.180   3.660   0.041  0.00  0.00     0.084 H 
ATOM     18  C8  <0> d          -0.013   1.076   0.008  0.00  0.00    -0.083 A 
ATOM     19  H13 <0> d          -2.147   1.198   0.019  0.00  0.00     0.083 H 
ATOM     20  C7  <0> d           1.175   1.783   0.000  0.00  0.00    -0.082 A 
ATOM     21  H12 <0> d           0.002  -0.004   0.002  0.00  0.00     0.083 H 
ATOM     22  C6  <0> d           1.156   3.165   0.008  0.00  0.00    -0.077 A 
ATOM     23  H11 <0> d           2.118   1.256  -0.011  0.00  0.00     0.083 H 
ATOM     24  H10 <0> d           2.084   3.718   0.002  0.00  0.00     0.084 H 
ENDBRANCH   1  14
TORSDOF 4
