REMARK  2 active torsions:
REMARK  status: ('A' for Active; 'I' for Inactive)
REMARK    1  A    between atoms: C1_1  and  N1_2 
REMARK       I    between atoms: N1_2  and  C2_3 
REMARK    2  A    between atoms: C2_3  and  C3_5 
ROOT
ATOM      1  C3  <0> d           1.103   3.189   0.009  0.00  0.00     0.049 A 
ATOM      2  C4  <0> d           1.172   1.791   0.001  0.00  0.00    -0.065 A 
ATOM      3  C5  <0> d          -0.013   1.076   0.008  0.00  0.00    -0.065 A 
ATOM      4  C6  <0> d          -1.216   1.758   0.017  0.00  0.00     0.002 A 
ATOM      5  N2  <0> d          -1.250   3.077   0.031  0.00  0.00    -0.272 NA
ATOM      6  C7  <0> d          -0.151   3.802   0.024  0.00  0.00     0.017 A 
ATOM      7  H5  <0> d           2.125   1.284  -0.012  0.00  0.00     0.085 H 
ATOM      8  H6  <0> d           0.002  -0.004   0.002  0.00  0.00     0.085 H 
ATOM      9  H7  <0> d          -2.142   1.203   0.018  0.00  0.00     0.114 H 
ATOM     10  H8  <0> d          -0.220   4.880   0.030  0.00  0.00     0.116 H 
ENDROOT
BRANCH   1  11
ATOM     11  C2  <0> d           2.337   4.003   0.002  0.00  0.00     0.252 C 
ATOM     12  N1  <0> d           2.257   5.349   0.010  0.00  0.00    -0.361 N 
ATOM     13  H4  <0> d           1.390   5.783   0.020  0.00  0.00     0.162 HD
ATOM     14  O1  <0> d           3.424   3.459  -0.011  0.00  0.00    -0.268 OA
BRANCH  12  15
ATOM     15  C1  <0> d           3.480   6.155   0.003  0.00  0.00    -0.018 C 
ATOM     16  H1  <0> d           4.074   5.921   0.886  0.00  0.00     0.056 H 
ATOM     17  H2  <0> d           4.058   5.931  -0.894  0.00  0.00     0.056 H 
ATOM     18  H3  <0> d           3.218   7.213   0.011  0.00  0.00     0.056 H 
ENDBRANCH  12  15
ENDBRANCH   1  11
TORSDOF 2
