REMARK  2 active torsions:
REMARK  status: ('A' for Active; 'I' for Inactive)
REMARK    1  A    between atoms: C2_2  and  C3_3 
REMARK    2  A    between atoms: C7_8  and  N2_9 
ROOT
ATOM      1  C1  <0> d           0.018  -1.178  -0.004  0.00  0.00    -0.149 C 
ATOM      2  C2  <0> d           0.002  -0.004   0.002  0.00  0.00    -0.074 C 
ATOM      3  H1  <0> d           0.032  -2.228  -0.010  0.00  0.00     0.166 H 
ENDROOT
BRANCH   2   4
ATOM      4  C3  <0> d          -0.017   1.428   0.010  0.00  0.00     0.060 A 
ATOM      5  C7  <0> d           1.184   2.160   0.002  0.00  0.00     0.049 A 
ATOM      6  C6  <0> d           1.106   3.551   0.005  0.00  0.00    -0.017 A 
ATOM      7  C5  <0> d          -0.135   4.156   0.025  0.00  0.00     0.128 A 
ATOM      8  H3  <0> d           2.005   4.149  -0.005  0.00  0.00     0.092 H 
ATOM      9  N1  <0> d          -1.245   3.438   0.038  0.00  0.00    -0.247 NA
ATOM     10 Cl1  <0> d          -0.240   5.888   0.035  0.00  0.00    -0.062 Cl
ATOM     11  C4  <0> d          -1.226   2.120   0.031  0.00  0.00     0.024 A 
ATOM     12  H2  <0> d          -2.156   1.572   0.042  0.00  0.00     0.117 H 
BRANCH   5  13
ATOM     13  N2  <0> d           2.414   1.514  -0.013  0.00  0.00    -0.398 N 
ATOM     14  H4  <0> d           2.453   0.545  -0.018  0.00  0.00     0.156 HD
ATOM     15  H5  <0> d           3.234   2.033  -0.018  0.00  0.00     0.156 HD
ENDBRANCH   5  13
ENDBRANCH   2   4
TORSDOF 2
