REMARK  2 active torsions:
REMARK  status: ('A' for Active; 'I' for Inactive)
REMARK    1  A    between atoms: C2_2  and  C3_3 
REMARK    2  A    between atoms: C3_3  and  C4_4 
ROOT
ATOM      1  C1  <0> d           2.697   1.121   2.143  0.00  0.00    -0.154 C 
ATOM      2  C2  <0> d           2.129   1.510   1.192  0.00  0.00    -0.116 C 
ATOM      3  H1  <0> d           3.229   0.756   3.034  0.00  0.00     0.166 H 
ENDROOT
BRANCH   2   4
ATOM      4  C3  <0> d           1.417   1.997  -0.001  0.00  0.00     0.009 C 
ATOM      5  H2  <0> d           1.403   3.097   0.005  0.00  0.00     0.054 H 
ATOM      6  H3  <0> d           1.932   1.643  -0.906  0.00  0.00     0.054 H 
BRANCH   4   7
ATOM      7  C4  <0> d          -0.018   1.468   0.010  0.00  0.00     0.059 C 
ATOM      8  C9  <0> d          -0.758   1.975  -1.229  0.00  0.00    -0.045 C 
ATOM      9  C8  <0> d          -2.193   1.445  -1.219  0.00  0.00    -0.063 C 
ATOM     10  H12 <0> d          -0.773   3.075  -1.223  0.00  0.00     0.035 H 
ATOM     11  H13 <0> d          -0.243   1.620  -2.134  0.00  0.00     0.035 H 
ATOM     12  C7  <0> d          -2.909   1.938   0.040  0.00  0.00    -0.065 C 
ATOM     13  H10 <0> d          -2.178   0.345  -1.225  0.00  0.00     0.033 H 
ATOM     14  H11 <0> d          -2.725   1.809  -2.110  0.00  0.00     0.033 H 
ATOM     15  C6  <0> d          -2.169   1.432   1.280  0.00  0.00    -0.063 C 
ATOM     16  H8  <0> d          -3.941   1.558   0.048  0.00  0.00     0.033 H 
ATOM     17  H9  <0> d          -2.924   3.038   0.046  0.00  0.00     0.033 H 
ATOM     18  C5  <0> d          -0.734   1.961   1.269  0.00  0.00    -0.045 C 
ATOM     19  H6  <0> d          -2.155   0.332   1.274  0.00  0.00     0.033 H 
ATOM     20  H7  <0> d          -2.684   1.786   2.185  0.00  0.00     0.033 H 
ATOM     21  H4  <0> d          -0.202   1.597   2.160  0.00  0.00     0.035 H 
ATOM     22  H5  <0> d          -0.749   3.061   1.275  0.00  0.00     0.035 H 
ATOM     23  C10 <0> d           0.002  -0.004   0.002  0.00  0.00     0.070 C 
ATOM     24  N1  <0> d           0.018  -1.140  -0.004  0.00  0.00    -0.196 NA
ENDBRANCH   4   7
ENDBRANCH   2   4
TORSDOF 2
