REMARK  1 active torsions:
REMARK  status: ('A' for Active; 'I' for Inactive)
REMARK    1  A    between atoms: C5_6  and  N2_7 
ROOT
ATOM      1  C1  <0> d           3.123   2.397   1.180  0.00  0.00    -0.031 A 
ATOM      2  C2  <0> d           3.697   2.674  -0.054  0.00  0.00     0.051 A 
ATOM      3  C3  <0> d           3.003   2.366  -1.208  0.00  0.00     0.000 A 
ATOM      4  N1  <0> d           1.805   1.812  -1.153  0.00  0.00    -0.341 N 
ATOM      5  C4  <0> d           1.222   1.532  -0.001  0.00  0.00     0.205 A 
ATOM      6  C5  <0> d           1.859   1.821   1.206  0.00  0.00     0.082 A 
ATOM      7  O1  <0> d          -0.011   0.963   0.007  0.00  0.00    -0.170 OA
ATOM      8 Cl1  <0> d           5.271   3.402  -0.145  0.00  0.00    -0.083 Cl
ATOM      9  H1  <0> d           3.644   2.629   2.097  0.00  0.00     0.089 H 
ATOM     10  H2  <0> d           3.447   2.580  -2.169  0.00  0.00     0.114 H 
ATOM     11  H5  <0> d           1.267   1.573  -2.082  0.00  0.00     0.167 HD
ENDROOT
BRANCH   6  12
ATOM     12  N2  <0> d           1.237   1.528   2.425  0.00  0.00    -0.396 N 
ATOM     13  H3  <0> d           0.236   1.072   2.437  0.00  0.00     0.156 HD
ATOM     14  H4  <0> d           1.748   1.755   3.372  0.00  0.00     0.156 HD
ENDBRANCH   6  12
TORSDOF 1
