REMARK  9 active torsions:
REMARK  status: ('A' for Active; 'I' for Inactive)
REMARK    1  A    between atoms: C1_1  and  C2_2 
REMARK    2  A    between atoms: C2_2  and  C3_3 
REMARK    3  A    between atoms: C2_2  and  C4_4 
REMARK    4  A    between atoms: C4_4  and  C5_5 
REMARK    5  A    between atoms: C5_5  and  C6_6 
REMARK    6  A    between atoms: C6_6  and  C7_8 
REMARK    7  A    between atoms: C7_8  and  C8_9 
REMARK    8  A    between atoms: C7_8  and  C9_10 
REMARK    9  A    between atoms: C7_8  and  C10_11 
ROOT
ATOM      1  C5  <0> d          -1.416  -2.058  -0.121  0.00  0.00    -0.009 C 
ATOM      2  H10 <0> d          -0.933  -2.334  -1.059  0.00  0.00     0.044 H 
ATOM      3  H11 <0> d          -0.863  -2.489   0.713  0.00  0.00     0.044 H 
ENDROOT
BRANCH   1   4
ATOM      4  C4  <0> d          -1.433  -0.534   0.013  0.00  0.00    -0.056 C 
ATOM      5  H8  <0> d          -1.916  -0.257   0.950  0.00  0.00     0.034 H 
ATOM      6  H9  <0> d          -1.986  -0.102  -0.821  0.00  0.00     0.034 H 
BRANCH   4   7
ATOM      7  C2  <0> d           0.002  -0.004   0.002  0.00  0.00    -0.061 C 
ATOM      8  H4  <0> d           0.512  -0.356  -0.895  0.00  0.00     0.038 H 
BRANCH   7   9
ATOM      9  C1  <0> d          -0.019   1.526   0.010  0.00  0.00    -0.073 C 
ATOM     10  H1  <0> d           1.004   1.903   0.003  0.00  0.00     0.028 H 
ATOM     11  H2  <0> d          -0.546   1.887  -0.873  0.00  0.00     0.028 H 
ATOM     12  H3  <0> d          -0.529   1.877   0.907  0.00  0.00     0.028 H 
ENDBRANCH   7   9
BRANCH   7  13
ATOM     13  C3  <0> d           0.742  -0.511   1.242  0.00  0.00    -0.073 C 
ATOM     14  H5  <0> d           0.757  -1.601   1.236  0.00  0.00     0.028 H 
ATOM     15  H6  <0> d           1.765  -0.134   1.234  0.00  0.00     0.028 H 
ATOM     16  H7  <0> d           0.232  -0.159   2.138  0.00  0.00     0.028 H 
ENDBRANCH   7  13
ENDBRANCH   4   7
ENDBRANCH   1   4
BRANCH   1  17
ATOM     17  C6  <0> d          -2.829  -2.579  -0.111  0.00  0.00     0.134 C 
ATOM     18  O1  <0> d          -3.756  -1.811  -0.006  0.00  0.00    -0.297 OA
BRANCH  17  19
ATOM     19  C7  <0> d          -3.087  -4.059  -0.230  0.00  0.00     0.009 C 
BRANCH  19  20
ATOM     20  C8  <0> d          -4.595  -4.319  -0.192  0.00  0.00    -0.063 C 
ATOM     21  H12 <0> d          -5.074  -3.798  -1.022  0.00  0.00     0.029 H 
ATOM     22  H13 <0> d          -4.782  -5.389  -0.279  0.00  0.00     0.029 H 
ATOM     23  H14 <0> d          -5.003  -3.954   0.750  0.00  0.00     0.029 H 
ENDBRANCH  19  20
BRANCH  19  24
ATOM     24  C9  <0> d          -2.514  -4.572  -1.552  0.00  0.00    -0.063 C 
ATOM     25  H15 <0> d          -1.440  -4.387  -1.579  0.00  0.00     0.029 H 
ATOM     26  H16 <0> d          -2.701  -5.642  -1.639  0.00  0.00     0.029 H 
ATOM     27  H17 <0> d          -2.993  -4.052  -2.382  0.00  0.00     0.029 H 
ENDBRANCH  19  24
BRANCH  19  28
ATOM     28  C10 <0> d          -2.415  -4.790   0.934  0.00  0.00    -0.063 C 
ATOM     29  H18 <0> d          -2.824  -4.424   1.877  0.00  0.00     0.029 H 
ATOM     30  H19 <0> d          -2.602  -5.860   0.848  0.00  0.00     0.029 H 
ATOM     31  H20 <0> d          -1.341  -4.605   0.908  0.00  0.00     0.029 H 
ENDBRANCH  19  28
ENDBRANCH  17  19
ENDBRANCH   1  17
TORSDOF 9
