REMARK  3 active torsions:
REMARK  status: ('A' for Active; 'I' for Inactive)
REMARK    1  A    between atoms: C1_1  and  C2_2 
REMARK    2  A    between atoms: C2_2  and  C7_11 
REMARK    3  A    between atoms: C3_3  and  C6_9 
ROOT
ATOM      1  C2  <0> d          -0.198  -0.098   0.065  0.00  0.00     0.077 C 
ATOM      2  C3  <0> d           0.612  -0.586  -1.155  0.00  0.00     0.069 C 
ATOM      3  H1  <0> d           0.994   0.260  -1.726  0.00  0.00     0.062 H 
ATOM      4  C4  <0> d          -0.436  -1.372  -1.977  0.00  0.00     0.031 C 
ATOM      5  C5  <0> d          -1.559  -1.612  -0.985  0.00  0.00     0.260 C 
ATOM      6  O1  <0> d          -2.311  -2.557  -0.967  0.00  0.00    -0.265 OA
ATOM      7  O2  <0> d          -1.560  -0.574  -0.129  0.00  0.00    -0.310 OA
ATOM      8  H5  <0> d          -0.020  -2.319  -2.321  0.00  0.00     0.049 H 
ATOM      9  H6  <0> d          -0.788  -0.777  -2.819  0.00  0.00     0.049 H 
ENDROOT
BRANCH   1  10
ATOM     10  C1  <0> d          -0.180   1.430   0.130  0.00  0.00    -0.046 C 
ATOM     11  H2  <0> d           0.848   1.777   0.236  0.00  0.00     0.031 H 
ATOM     12  H3  <0> d          -0.609   1.838  -0.785  0.00  0.00     0.031 H 
ATOM     13  H4  <0> d          -0.766   1.764   0.987  0.00  0.00     0.031 H 
ENDBRANCH   1  10
BRANCH   1  14
ATOM     14  C7  <0> d           0.386  -0.685   1.351  0.00  0.00    -0.046 C 
ATOM     15  H7  <0> d          -0.189  -0.330   2.207  0.00  0.00     0.031 H 
ATOM     16  H8  <0> d           0.339  -1.773   1.308  0.00  0.00     0.031 H 
ATOM     17  H9  <0> d           1.424  -0.371   1.456  0.00  0.00     0.031 H 
ENDBRANCH   1  14
BRANCH   2  18
ATOM     18  C6  <0> d           1.737  -1.489  -0.720  0.00  0.00     0.180 C 
ATOM     19  O3  <0> d           1.542  -2.674  -0.585  0.00  0.00    -0.648 OA
ATOM     20  O4  <0> d           2.955  -0.977  -0.483  0.00  0.00    -0.648 OA
ENDBRANCH   2  18
TORSDOF 3
