REMARK  1 active torsions:
REMARK  status: ('A' for Active; 'I' for Inactive)
REMARK    1  A    between atoms: C1_1  and  C2_2 
REMARK       I    between atoms: C2_2  and  N1_4 
ROOT
ATOM      1  C2  <0> d          -1.578   4.226   0.037  0.00  0.00     0.224 C 
ATOM      2  O1  <0> d          -1.146   5.358   0.038  0.00  0.00    -0.273 OA
ATOM      3  N1  <0> d          -0.729   3.180   0.025  0.00  0.00    -0.293 N 
ATOM      4  C3  <0> d          -1.101   1.856   0.017  0.00  0.00    -0.011 A 
ATOM      5  C4  <0> d          -0.013   1.076   0.008  0.00  0.00    -0.055 A 
ATOM      6  C5  <0> d           1.156   1.963   0.002  0.00  0.00    -0.008 A 
ATOM      7  C6  <0> d           0.652   3.275   0.013  0.00  0.00     0.052 A 
ATOM      8  C7  <0> d           1.535   4.347   0.009  0.00  0.00    -0.056 A 
ATOM      9  C8  <0> d           2.894   4.118  -0.005  0.00  0.00    -0.081 A 
ATOM     10  C9  <0> d           3.393   2.824  -0.016  0.00  0.00    -0.082 A 
ATOM     11  C10 <0> d           2.534   1.747  -0.013  0.00  0.00    -0.071 A 
ATOM     12  H4  <0> d          -2.121   1.499   0.019  0.00  0.00     0.112 H 
ATOM     13  H5  <0> d           0.002  -0.004   0.002  0.00  0.00     0.087 H 
ATOM     14  H6  <0> d           1.157   5.358   0.016  0.00  0.00     0.087 H 
ATOM     15  H7  <0> d           3.578   4.954  -0.008  0.00  0.00     0.083 H 
ATOM     16  H8  <0> d           4.460   2.659  -0.026  0.00  0.00     0.083 H 
ATOM     17  H9  <0> d           2.926   0.740  -0.021  0.00  0.00     0.084 H 
ENDROOT
BRANCH   1  18
ATOM     18  C1  <0> d          -3.066   3.988   0.050  0.00  0.00    -0.002 C 
ATOM     19  H1  <0> d          -3.264   2.906   0.047  0.00  0.00     0.040 H 
ATOM     20  H2  <0> d          -3.519   4.446  -0.842  0.00  0.00     0.040 H 
ATOM     21  H3  <0> d          -3.502   4.438   0.954  0.00  0.00     0.040 H 
ENDBRANCH   1  18
TORSDOF 1
