REMARK  1 active torsions:
REMARK  status: ('A' for Active; 'I' for Inactive)
REMARK    1  A    between atoms: C2_2  and  C6_9 
ROOT
ATOM      1  C1  <0> d          -0.016   1.337   0.009  0.00  0.00    -0.003 A 
ATOM      2  C2  <0> d           1.167   2.053   0.002  0.00  0.00     0.109 A 
ATOM      3  C3  <0> d           2.434   1.304  -0.014  0.00  0.00     0.230 A 
ATOM      4  C4  <0> d           2.365  -0.113  -0.021  0.00  0.00     0.182 A 
ATOM      5  C5  <0> d           1.158  -0.716  -0.013  0.00  0.00     0.018 A 
ATOM      6  N1  <0> d           0.002  -0.004   0.002  0.00  0.00    -0.371 N 
ATOM      7  F1  <0> d           3.497  -0.851  -0.036  0.00  0.00    -0.200 F 
ATOM      8  O1  <0> d           3.508   1.883  -0.022  0.00  0.00    -0.284 OA
ATOM      9  H1  <0> d          -0.960   1.861   0.026  0.00  0.00     0.113 H 
ATOM     10  H2  <0> d           1.110  -1.795  -0.019  0.00  0.00     0.116 H 
ATOM     11  H3  <0> d          -0.842  -0.483   0.008  0.00  0.00     0.164 HD
ENDROOT
BRANCH   2  12
ATOM     12  C6  <0> d           1.160   3.522   0.009  0.00  0.00     0.214 C 
ATOM     13  O2  <0> d           0.097   4.128   0.022  0.00  0.00    -0.644 OA
ATOM     14  O3  <0> d           2.217   4.139   0.003  0.00  0.00    -0.644 OA
ENDBRANCH   2  12
TORSDOF 1
