REMARK  3 active torsions:
REMARK  status: ('A' for Active; 'I' for Inactive)
REMARK    1  A    between atoms: C1_1  and  C2_2 
REMARK    2  A    between atoms: C3_4  and  C5_7 
REMARK    3  A    between atoms: C5_7  and  C6_8 
ROOT
ATOM      1  C2  <0> d           0.002  -0.004   0.002  0.00  0.00     0.141 A 
ATOM      2  N1  <0> d          -1.046  -0.777   0.003  0.00  0.00    -0.231 NA
ATOM      3  C3  <0> d          -0.638  -2.058  -0.007  0.00  0.00     0.069 A 
ATOM      4  C4  <0> d           0.706  -2.057  -0.014  0.00  0.00     0.045 A 
ATOM      5  O1  <0> d           1.101  -0.769  -0.013  0.00  0.00    -0.306 OA
ATOM      6  H4  <0> d           1.348  -2.926  -0.022  0.00  0.00     0.126 H 
ENDROOT
BRANCH   3   7
ATOM      7  C5  <0> d          -1.526  -3.275  -0.009  0.00  0.00     0.057 C 
ATOM      8  H5  <0> d          -2.096  -3.307  -0.938  0.00  0.00     0.058 H 
ATOM      9  H6  <0> d          -0.913  -4.173   0.072  0.00  0.00     0.058 H 
BRANCH   7  10
ATOM     10  C6  <0> d          -2.475  -3.207   1.160  0.00  0.00     0.178 C 
ATOM     11  O2  <0> d          -2.433  -2.258   1.924  0.00  0.00    -0.648 OA
ATOM     12  O3  <0> d          -3.284  -4.100   1.341  0.00  0.00    -0.648 OA
ENDBRANCH   7  10
ENDBRANCH   3   7
BRANCH   1  13
ATOM     13  C1  <0> d          -0.018   1.503   0.010  0.00  0.00    -0.015 C 
ATOM     14  H1  <0> d           1.004   1.880   0.003  0.00  0.00     0.038 H 
ATOM     15  H2  <0> d          -0.545   1.864  -0.873  0.00  0.00     0.038 H 
ATOM     16  H3  <0> d          -0.529   1.854   0.907  0.00  0.00     0.038 H 
ENDBRANCH   1  13
TORSDOF 3
