REMARK  1 active torsions:
REMARK  status: ('A' for Active; 'I' for Inactive)
REMARK    1  A    between atoms: C6_6  and  N1_7 
REMARK       I    between atoms: N1_7  and  C7_8 
REMARK       I    between atoms: C7_8  and  N2_10 
ROOT
ATOM      1  C1  <0> d          -0.013   1.374   0.194  0.00  0.00    -0.054 A 
ATOM      2  C2  <0> d           1.173   2.082   0.192  0.00  0.00    -0.044 A 
ATOM      3  C3  <0> d           2.375   1.421   0.005  0.00  0.00     0.116 A 
ATOM      4  C4  <0> d           2.391   0.049  -0.181  0.00  0.00    -0.044 A 
ATOM      5  C5  <0> d           1.207  -0.663  -0.180  0.00  0.00    -0.054 A 
ATOM      6  C6  <0> d           0.001  -0.002   0.008  0.00  0.00     0.036 A 
ATOM      7  F1  <0> d           3.534   2.115   0.004  0.00  0.00    -0.206 F 
ATOM      8  H1  <0> d          -0.950   1.890   0.344  0.00  0.00     0.087 H 
ATOM      9  H2  <0> d           1.162   3.153   0.336  0.00  0.00     0.088 H 
ATOM     10  H3  <0> d           3.329  -0.465  -0.327  0.00  0.00     0.088 H 
ATOM     11  H4  <0> d           1.220  -1.733  -0.326  0.00  0.00     0.087 H 
ENDROOT
BRANCH   6  12
ATOM     12  N1  <0> d          -1.201  -0.722   0.010  0.00  0.00    -0.309 N 
ATOM     13  C7  <0> d          -2.326  -0.156  -0.469  0.00  0.00     0.318 C 
ATOM     14  O1  <0> d          -2.280   0.941  -0.991  0.00  0.00    -0.247 OA
ATOM     15  N2  <0> d          -3.502  -0.806  -0.369  0.00  0.00    -0.352 N 
ATOM     16  H6  <0> d          -3.539  -1.682   0.047  0.00  0.00     0.160 HD
ATOM     17  H7  <0> d          -4.312  -0.399  -0.714  0.00  0.00     0.160 HD
ATOM     18  H5  <0> d          -1.223  -1.628   0.356  0.00  0.00     0.170 HD
ENDBRANCH   6  12
TORSDOF 1
