REMARK  1 active torsions:
REMARK  status: ('A' for Active; 'I' for Inactive)
REMARK    1  A    between atoms: C1_1  and  C2_2 
ROOT
ATOM      1  C2  <0> d          -3.161   1.230   2.146  0.00  0.00     0.059 A 
ATOM      2  C3  <0> d          -2.198   1.259   1.139  0.00  0.00    -0.008 A 
ATOM      3  C4  <0> d          -2.806   0.939  -0.031  0.00  0.00     0.036 A 
ATOM      4  N1  <0> d          -4.105   0.714   0.227  0.00  0.00    -0.281 N 
ATOM      5  H1  <0> d          -4.803   0.457  -0.441  0.00  0.00     0.189 HD
ATOM      6  N2  <0> d          -4.308   0.903   1.603  0.00  0.00    -0.179 NA
ATOM      7  C5  <0> d          -2.097   0.865  -1.360  0.00  0.00    -0.025 C 
ATOM      8  C6  <0> d          -0.753   1.593  -1.233  0.00  0.00    -0.060 C 
ATOM      9  C7  <0> d          -0.013   1.086   0.008  0.00  0.00    -0.061 C 
ATOM     10  C8  <0> d          -0.730   1.580   1.270  0.00  0.00    -0.037 C 
ATOM     11  H5  <0> d          -2.703   1.346  -2.128  0.00  0.00     0.042 H 
ATOM     12  H6  <0> d          -1.925  -0.178  -1.627  0.00  0.00     0.042 H 
ATOM     13  H7  <0> d          -0.928   2.665  -1.139  0.00  0.00     0.033 H 
ATOM     14  H8  <0> d          -0.150   1.400  -2.120  0.00  0.00     0.033 H 
ATOM     15  H9  <0> d           0.002  -0.004   0.002  0.00  0.00     0.033 H 
ATOM     16  H10 <0> d           1.010   1.463   0.000  0.00  0.00     0.033 H 
ATOM     17  H11 <0> d          -0.321   1.077   2.146  0.00  0.00     0.040 H 
ATOM     18  H12 <0> d          -0.597   2.658   1.370  0.00  0.00     0.040 H 
ENDROOT
BRANCH   1  19
ATOM     19  C1  <0> d          -2.924   1.524   3.605  0.00  0.00    -0.033 C 
ATOM     20  H2  <0> d          -2.663   0.602   4.124  0.00  0.00     0.035 H 
ATOM     21  H3  <0> d          -2.108   2.240   3.704  0.00  0.00     0.035 H 
ATOM     22  H4  <0> d          -3.830   1.944   4.042  0.00  0.00     0.035 H 
ENDBRANCH   1  19
TORSDOF 1
