REMARK  1 active torsions:
REMARK  status: ('A' for Active; 'I' for Inactive)
REMARK    1  A    between atoms: C9_10  and  N2_11 
ROOT
ATOM      1  C1  <0> d          -1.241   3.156   0.030  0.00  0.00    -0.057 A 
ATOM      2  C2  <0> d          -0.089   3.880   0.023  0.00  0.00    -0.069 A 
ATOM      3  C3  <0> d           1.149   3.219   0.009  0.00  0.00    -0.008 A 
ATOM      4  C4  <0> d           2.365   3.921  -0.000  0.00  0.00     0.013 A 
ATOM      5  N1  <0> d           3.501   3.263  -0.015  0.00  0.00    -0.272 NA
ATOM      6  C5  <0> d           3.564   1.938  -0.022  0.00  0.00     0.003 A 
ATOM      7  C6  <0> d           2.443   1.165  -0.016  0.00  0.00    -0.055 A 
ATOM      8  C7  <0> d           1.186   1.799   0.000  0.00  0.00    -0.021 A 
ATOM      9  C8  <0> d          -0.013   1.076   0.008  0.00  0.00    -0.047 A 
ATOM     10  C9  <0> d          -1.213   1.756   0.017  0.00  0.00     0.026 A 
ATOM     11  H1  <0> d          -2.191   3.669   0.041  0.00  0.00     0.086 H 
ATOM     12  H2  <0> d          -0.128   4.959   0.029  0.00  0.00     0.085 H 
ATOM     13  H3  <0> d           2.366   5.001   0.006  0.00  0.00     0.116 H 
ATOM     14  H4  <0> d           4.532   1.459  -0.035  0.00  0.00     0.114 H 
ATOM     15  H5  <0> d           2.517   0.088  -0.022  0.00  0.00     0.087 H 
ATOM     16  H6  <0> d           0.002  -0.004   0.002  0.00  0.00     0.088 H 
ENDROOT
BRANCH  10  17
ATOM     17  N2  <0> d          -2.410   1.042   0.019  0.00  0.00    -0.399 N 
ATOM     18  H7  <0> d          -2.397   0.073   0.014  0.00  0.00     0.156 HD
ATOM     19  H8  <0> d          -3.257   1.516   0.026  0.00  0.00     0.156 HD
ENDBRANCH  10  17
TORSDOF 1
