REMARK  5 active torsions:
REMARK  status: ('A' for Active; 'I' for Inactive)
REMARK    1  A    between atoms: C1_1  and  C2_2 
REMARK    2  A    between atoms: C1_1  and  O5_14 
REMARK    3  A    between atoms: C3_4  and  O4_13 
REMARK    4  A    between atoms: C4_6  and  O3_12 
REMARK    5  A    between atoms: C5_8  and  O2_11 
ROOT
ATOM      1  C2  <0> d          -0.013   1.086   0.008  0.00  0.00     0.089 C 
ATOM      2  H1  <0> d           0.002  -0.004   0.002  0.00  0.00     0.090 H 
ATOM      3  C3  <0> d           1.428   1.643  -0.003  0.00  0.00     0.092 C 
ATOM      4  H2  <0> d           2.125   0.909   0.401  0.00  0.00     0.091 H 
ATOM      5  C4  <0> d           1.718   1.905  -1.498  0.00  0.00     0.110 C 
ATOM      6  H3  <0> d           2.559   1.299  -1.835  0.00  0.00     0.094 H 
ATOM      7  C5  <0> d           0.418   1.475  -2.213  0.00  0.00     0.156 C 
ATOM      8  H4  <0> d           0.499   0.445  -2.560  0.00  0.00     0.133 H 
ATOM      9  O1  <0> d          -0.612   1.587  -1.207  0.00  0.00    -0.349 OA
ENDROOT
BRANCH   1  10
ATOM     10  C1  <0> d          -0.774   1.600   1.232  0.00  0.00     0.043 C 
ATOM     11  H5  <0> d          -0.230   1.333   2.137  0.00  0.00     0.078 H 
ATOM     12  H6  <0> d          -0.868   2.685   1.171  0.00  0.00     0.078 H 
BRANCH  10  13
ATOM     13  O5  <0> d          -2.075   1.011   1.266  0.00  0.00    -0.398 OA
ATOM     14  H10 <0> d          -2.615   1.293   2.017  0.00  0.00     0.209 HD
ENDBRANCH  10  13
ENDBRANCH   1  10
BRANCH   3  15
ATOM     15  O4  <0> d           1.499   2.861   0.742  0.00  0.00    -0.390 OA
ATOM     16  H9  <0> d           2.382   3.255   0.768  0.00  0.00     0.210 HD
ENDBRANCH   3  15
BRANCH   7  17
ATOM     17  O2  <0> d           0.142   2.348  -3.310  0.00  0.00    -0.369 OA
ATOM     18  H7  <0> d          -0.663   2.125  -3.797  0.00  0.00     0.212 HD
ENDBRANCH   7  17
BRANCH   5  19
ATOM     19  O3  <0> d           1.978   3.292  -1.722  0.00  0.00    -0.388 OA
ATOM     20  H8  <0> d           2.166   3.513  -2.644  0.00  0.00     0.210 HD
ENDBRANCH   5  19
TORSDOF 5
