REMARK  1 active torsions:
REMARK  status: ('A' for Active; 'I' for Inactive)
REMARK    1  A    between atoms: C6_6  and  C7_8 
ROOT
ATOM      1  C1  <0> d          -1.093   5.660  -0.387  0.00  0.00    -0.064 C 
ATOM      2  C2  <0> d          -0.080   4.519  -0.184  0.00  0.00    -0.057 C 
ATOM      3  C3  <0> d          -1.286   3.598   0.028  0.00  0.00    -0.026 A 
ATOM      4  C4  <0> d          -2.107   4.583  -0.811  0.00  0.00    -0.057 C 
ATOM      5  C5  <0> d          -1.699   2.847   1.289  0.00  0.00    -0.044 A 
ATOM      6  C6  <0> d          -1.331   2.074   0.020  0.00  0.00     0.038 A 
ATOM      7  H1  <0> d          -2.141   1.597  -0.533  0.00  0.00     0.057 H 
ATOM      8  H2  <0> d          -1.362   6.173   0.536  0.00  0.00     0.033 H 
ATOM      9  H3  <0> d          -0.822   6.346  -1.190  0.00  0.00     0.033 H 
ATOM     10  H4  <0> d           0.541   4.638   0.704  0.00  0.00     0.034 H 
ATOM     11  H5  <0> d           0.499   4.284  -1.078  0.00  0.00     0.034 H 
ATOM     12  H6  <0> d          -2.094   4.365  -1.879  0.00  0.00     0.034 H 
ATOM     13  H7  <0> d          -3.112   4.753  -0.425  0.00  0.00     0.034 H 
ATOM     14  H8  <0> d          -2.751   2.879   1.572  0.00  0.00     0.035 H 
ATOM     15  H9  <0> d          -0.990   2.824   2.116  0.00  0.00     0.035 H 
ENDROOT
BRANCH   6  16
ATOM     16  C7  <0> d          -0.016   1.338   0.009  0.00  0.00     0.177 C 
ATOM     17  O1  <0> d           1.022   1.956   0.003  0.00  0.00    -0.648 OA
ATOM     18  O2  <0> d           0.002  -0.004   0.002  0.00  0.00    -0.648 OA
ENDBRANCH   6  16
TORSDOF 1
