REMARK  1 active torsions:
REMARK  status: ('A' for Active; 'I' for Inactive)
REMARK    1  A    between atoms: N1_4  and  C5_6 
ROOT
ATOM      1  C1  <0> d          -0.016   1.349   0.009  0.00  0.00    -0.065 A 
ATOM      2  C2  <0> d           1.310   1.797  -0.001  0.00  0.00    -0.045 A 
ATOM      3  C3  <0> d           2.115   0.678  -0.015  0.00  0.00     0.116 A 
ATOM      4  N1  <0> d           1.293  -0.425  -0.013  0.00  0.00    -0.344 N 
ATOM      5  C4  <0> d           0.002  -0.004   0.002  0.00  0.00    -0.019 A 
ATOM      6  C8  <0> d           3.547   0.665  -0.029  0.00  0.00     0.117 C 
ATOM      7  N2  <0> d           4.683   0.656  -0.040  0.00  0.00    -0.190 NA
ATOM      8  H1  <0> d          -0.898   1.973   0.025  0.00  0.00     0.085 H 
ATOM      9  H2  <0> d           1.640   2.825   0.001  0.00  0.00     0.088 H 
ATOM     10  H3  <0> d          -0.868  -0.644   0.007  0.00  0.00     0.111 H 
ENDROOT
BRANCH   4  11
ATOM     11  C5  <0> d           1.736  -1.821  -0.025  0.00  0.00     0.017 A 
ATOM     12  C7  <0> d           1.314  -2.707   1.150  0.00  0.00    -0.044 A 
ATOM     13  C6  <0> d           0.668  -2.900  -0.224  0.00  0.00    -0.044 A 
ATOM     14  H7  <0> d           2.020  -3.467   1.486  0.00  0.00     0.036 H 
ATOM     15  H8  <0> d           0.707  -2.250   1.932  0.00  0.00     0.036 H 
ATOM     16  H5  <0> d          -0.363  -2.570  -0.346  0.00  0.00     0.036 H 
ATOM     17  H6  <0> d           0.949  -3.787  -0.792  0.00  0.00     0.036 H 
ATOM     18  H4  <0> d           2.719  -1.999  -0.461  0.00  0.00     0.073 H 
ENDBRANCH   4  11
TORSDOF 1
