REMARK  4 active torsions:
REMARK  status: ('A' for Active; 'I' for Inactive)
REMARK    1  A    between atoms: C1_1  and  O1_2 
REMARK    2  A    between atoms: O1_2  and  C2_3 
REMARK    3  A    between atoms: C3_4  and  C7_10 
REMARK    4  A    between atoms: C7_10  and  O2_11 
ROOT
ATOM      1  C2  <0> d           0.029   4.069   0.023  0.00  0.00     0.172 A 
ATOM      2  C3  <0> d          -1.197   3.417   0.031  0.00  0.00     0.021 A 
ATOM      3  C4  <0> d          -1.225   2.033   0.019  0.00  0.00    -0.032 A 
ATOM      4  C5  <0> d          -0.016   1.347   0.009  0.00  0.00     0.134 A 
ATOM      5  C6  <0> d           1.167   2.062   0.002  0.00  0.00     0.042 A 
ATOM      6  N1  <0> d           1.159   3.382   0.009  0.00  0.00    -0.234 NA
ATOM      7  F1  <0> d           0.002  -0.004   0.002  0.00  0.00    -0.205 F 
ATOM      8  H4  <0> d          -2.164   1.499   0.021  0.00  0.00     0.089 H 
ATOM      9  H5  <0> d           2.109   1.535  -0.009  0.00  0.00     0.119 H 
ENDROOT
BRANCH   1  10
ATOM     10  O1  <0> d           0.068   5.426   0.030  0.00  0.00    -0.339 OA
BRANCH  10  11
ATOM     11  C1  <0> d           1.360   6.037   0.021  0.00  0.00     0.012 C 
ATOM     12  H1  <0> d           1.916   5.724   0.904  0.00  0.00     0.067 H 
ATOM     13  H2  <0> d           1.900   5.733  -0.876  0.00  0.00     0.067 H 
ATOM     14  H3  <0> d           1.248   7.122   0.027  0.00  0.00     0.067 H 
ENDBRANCH  10  11
ENDBRANCH   1  10
BRANCH   2  15
ATOM     15  C7  <0> d          -2.481   4.206   0.047  0.00  0.00     0.045 C 
ATOM     16  H6  <0> d          -2.514   4.829   0.941  0.00  0.00     0.081 H 
ATOM     17  H7  <0> d          -2.530   4.838  -0.839  0.00  0.00     0.081 H 
BRANCH  15  18
ATOM     18  O2  <0> d          -3.592   3.307   0.052  0.00  0.00    -0.396 OA
ATOM     19  H8  <0> d          -4.454   3.747   0.062  0.00  0.00     0.209 HD
ENDBRANCH  15  18
ENDBRANCH   2  15
TORSDOF 4
