REMARK  3 active torsions:
REMARK  status: ('A' for Active; 'I' for Inactive)
REMARK    1  A    between atoms: C1_1  and  C2_2 
REMARK    2  A    between atoms: C6_7  and  C7_8 
REMARK    3  A    between atoms: C7_8  and  O1_9 
ROOT
ATOM      1  C2  <0> d           2.272   3.872   0.007  0.00  0.00    -0.051 A 
ATOM      2  C3  <0> d           2.096   5.247   0.011  0.00  0.00    -0.060 A 
ATOM      3  C4  <0> d           0.814   5.762   0.025  0.00  0.00     0.002 A 
ATOM      4  N1  <0> d          -0.234   4.961   0.030  0.00  0.00    -0.272 NA
ATOM      5  C5  <0> d          -0.104   3.649   0.023  0.00  0.00     0.010 A 
ATOM      6  C6  <0> d           1.147   3.062   0.008  0.00  0.00    -0.011 A 
ATOM      7  H4  <0> d           2.950   5.908   0.007  0.00  0.00     0.086 H 
ATOM      8  H5  <0> d           0.668   6.832   0.031  0.00  0.00     0.114 H 
ATOM      9  H6  <0> d          -0.986   3.025   0.028  0.00  0.00     0.115 H 
ENDROOT
BRANCH   6  10
ATOM     10  C7  <0> d           1.286   1.562  -0.002  0.00  0.00     0.042 C 
ATOM     11  H7  <0> d           1.840   1.243   0.881  0.00  0.00     0.081 H 
ATOM     12  H8  <0> d           1.823   1.252  -0.899  0.00  0.00     0.081 H 
BRANCH  10  13
ATOM     13  O1  <0> d          -0.011   0.963   0.007  0.00  0.00    -0.396 OA
ATOM     14  H9  <0> d           0.002  -0.004   0.002  0.00  0.00     0.209 HD
ENDBRANCH  10  13
ENDBRANCH   6  10
BRANCH   1  15
ATOM     15  C1  <0> d           3.655   3.271  -0.003  0.00  0.00    -0.051 C 
ATOM     16  H1  <0> d           3.983   3.132  -1.033  0.00  0.00     0.033 H 
ATOM     17  H2  <0> d           4.345   3.940   0.511  0.00  0.00     0.033 H 
ATOM     18  H3  <0> d           3.636   2.307   0.505  0.00  0.00     0.033 H 
ENDBRANCH   1  15
TORSDOF 3
