REMARK  2 active torsions:
REMARK  status: ('A' for Active; 'I' for Inactive)
REMARK    1  A    between atoms: C1_1  and  O1_2 
REMARK    2  A    between atoms: O1_2  and  C2_3 
ROOT
ATOM      1  C2  <0> d           1.241  -0.640  -0.013  0.00  0.00     0.185 A 
ATOM      2  C3  <0> d           0.002  -0.004   0.002  0.00  0.00    -0.027 A 
ATOM      3  C4  <0> d          -0.017   1.382   0.010  0.00  0.00    -0.038 A 
ATOM      4  C5  <0> d           1.201   2.051   0.002  0.00  0.00     0.148 A 
ATOM      5  N1  <0> d           2.328   1.366  -0.013  0.00  0.00    -0.136 NA
ATOM      6  N2  <0> d           2.350   0.083  -0.020  0.00  0.00    -0.123 NA
ATOM      7 Cl1  <0> d           1.238   3.786   0.010  0.00  0.00    -0.061 Cl
ATOM      8  H4  <0> d          -0.916  -0.573   0.008  0.00  0.00     0.090 H 
ATOM      9  H5  <0> d          -0.950   1.925   0.017  0.00  0.00     0.088 H 
ENDROOT
BRANCH   1  10
ATOM     10  O1  <0> d           1.312  -1.995  -0.021  0.00  0.00    -0.338 OA
BRANCH  10  11
ATOM     11  C1  <0> d           2.617  -2.577  -0.036  0.00  0.00     0.012 C 
ATOM     12  H1  <0> d           3.149  -2.251  -0.930  0.00  0.00     0.067 H 
ATOM     13  H2  <0> d           3.167  -2.260   0.850  0.00  0.00     0.067 H 
ATOM     14  H3  <0> d           2.530  -3.663  -0.041  0.00  0.00     0.067 H 
ENDBRANCH  10  11
ENDBRANCH   1  10
TORSDOF 2
