REMARK  4 active torsions:
REMARK  status: ('A' for Active; 'I' for Inactive)
REMARK    1  A    between atoms: C1_1  and  O1_2 
REMARK    2  A    between atoms: O1_2  and  C2_3 
REMARK    3  A    between atoms: C6_7  and  C8_9 
REMARK    4  A    between atoms: C8_9  and  C9_10 
ROOT
ATOM      1  C2  <0> d          -1.223   1.754   0.017  0.00  0.00     0.068 A 
ATOM      2  C3  <0> d          -0.013   1.076   0.008  0.00  0.00    -0.051 A 
ATOM      3  C4  <0> d           1.174   1.783   0.000  0.00  0.00    -0.080 A 
ATOM      4  C5  <0> d           1.156   3.166   0.008  0.00  0.00    -0.076 A 
ATOM      5  C6  <0> d          -0.049   3.844   0.023  0.00  0.00    -0.052 A 
ATOM      6  C7  <0> d          -1.239   3.141   0.031  0.00  0.00    -0.044 A 
ATOM      7  H4  <0> d           0.002  -0.004   0.002  0.00  0.00     0.087 H 
ATOM      8  H5  <0> d           2.116   1.256  -0.012  0.00  0.00     0.083 H 
ATOM      9  H6  <0> d           2.084   3.717   0.002  0.00  0.00     0.084 H 
ATOM     10  H7  <0> d          -2.179   3.671   0.044  0.00  0.00     0.088 H 
ENDROOT
BRANCH   5  11
ATOM     11  C8  <0> d          -0.065   5.351   0.032  0.00  0.00    -0.026 C 
ATOM     12  H8  <0> d          -0.954   5.702   0.556  0.00  0.00     0.045 H 
ATOM     13  H9  <0> d           0.826   5.721   0.539  0.00  0.00     0.045 H 
BRANCH  11  14
ATOM     14  C9  <0> d          -0.084   5.861  -1.386  0.00  0.00    -0.108 C 
ATOM     15  C10 <0> d          -1.026   6.685  -1.774  0.00  0.00    -0.124 C 
ATOM     16  H11 <0> d          -1.040   7.050  -2.790  0.00  0.00     0.066 H 
ATOM     17  H12 <0> d          -1.789   6.998  -1.077  0.00  0.00     0.066 H 
ATOM     18  H10 <0> d           0.679   5.547  -2.083  0.00  0.00     0.076 H 
ENDBRANCH  11  14
ENDBRANCH   5  11
BRANCH   1  19
ATOM     19  O1  <0> d          -2.392   1.060   0.019  0.00  0.00    -0.356 OA
BRANCH  19  20
ATOM     20  C1  <0> d          -2.300  -0.366   0.011  0.00  0.00     0.010 C 
ATOM     21  H1  <0> d          -1.759  -0.700   0.896  0.00  0.00     0.066 H 
ATOM     22  H2  <0> d          -3.302  -0.795   0.013  0.00  0.00     0.066 H 
ATOM     23  H3  <0> d          -1.768  -0.691  -0.883  0.00  0.00     0.066 H 
ENDBRANCH  19  20
ENDBRANCH   1  19
TORSDOF 4
