REMARK  2 active torsions:
REMARK  status: ('A' for Active; 'I' for Inactive)
REMARK    1  A    between atoms: C4_5  and  O3_10 
REMARK    2  A    between atoms: C5_6  and  C6_7 
ROOT
ATOM      1  C1  <0> d           0.059   3.821   0.016  0.00  0.00    -0.058 A 
ATOM      2  C2  <0> d           0.164   5.196   0.028  0.00  0.00    -0.030 A 
ATOM      3  C3  <0> d           1.424   5.786   0.020  0.00  0.00     0.180 A 
ATOM      4  N1  <0> d           2.523   5.048   0.005  0.00  0.00    -0.315 N 
ATOM      5  C4  <0> d           2.474   3.728  -0.002  0.00  0.00     0.159 A 
ATOM      6  C5  <0> d           1.238   3.061   0.007  0.00  0.00     0.091 A 
ATOM      7  O4  <0> d           1.528   7.136   0.026  0.00  0.00    -0.172 OA
ATOM      8  H1  <0> d          -0.908   3.340   0.018  0.00  0.00     0.085 H 
ATOM      9  H2  <0> d          -0.725   5.810   0.040  0.00  0.00     0.090 H 
ATOM     10  H4  <0> d           3.511   5.533  -0.002  0.00  0.00     0.170 HD
ENDROOT
BRANCH   6  11
ATOM     11  C6  <0> d           1.181   1.591  -0.001  0.00  0.00     0.213 C 
ATOM     12  O1  <0> d           2.210   0.943  -0.014  0.00  0.00    -0.644 OA
ATOM     13  O2  <0> d          -0.011   0.963   0.007  0.00  0.00    -0.644 OA
ENDBRANCH   6  11
BRANCH   5  14
ATOM     14  O3  <0> d           3.624   3.012  -0.017  0.00  0.00    -0.345 OA
ATOM     15  H3  <0> d           3.587   1.913  -0.022  0.00  0.00     0.219 HD
ENDBRANCH   5  14
TORSDOF 2
