REMARK  2 active torsions:
REMARK  status: ('A' for Active; 'I' for Inactive)
REMARK    1  A    between atoms: C1_1  and  C2_2 
REMARK    2  A    between atoms: C4_4  and  C8_12 
ROOT
ATOM      1  C2  <0> d           1.199  -0.722  -0.013  0.00  0.00    -0.059 A 
ATOM      2  C3  <0> d           0.002  -0.004   0.002  0.00  0.00    -0.069 A 
ATOM      3  C4  <0> d          -0.016   1.354   0.009  0.00  0.00    -0.029 A 
ATOM      4  C5  <0> d           1.198   2.063   0.002  0.00  0.00     0.115 A 
ATOM      5  C6  <0> d           2.459   1.307  -0.014  0.00  0.00     0.110 A 
ATOM      6  C7  <0> d           2.406  -0.098  -0.021  0.00  0.00    -0.045 A 
ATOM      7  N1  <0> d           3.406   2.231  -0.017  0.00  0.00    -0.155 NA
ATOM      8  N2  <0> d           2.853   3.394  -0.006  0.00  0.00    -0.196 N 
ATOM      9  H1  <0> d           3.367   4.251  -0.005  0.00  0.00     0.213 HD
ATOM     10  N3  <0> d           1.567   3.334   0.005  0.00  0.00    -0.155 NA
ATOM     11  H5  <0> d          -0.934  -0.543   0.008  0.00  0.00     0.085 H 
ATOM     12  H6  <0> d           3.317  -0.677  -0.033  0.00  0.00     0.088 H 
ENDROOT
BRANCH   1  13
ATOM     13  C1  <0> d           1.151  -2.228  -0.021  0.00  0.00    -0.051 C 
ATOM     14  H2  <0> d           1.130  -2.586  -1.050  0.00  0.00     0.033 H 
ATOM     15  H3  <0> d           2.034  -2.622   0.482  0.00  0.00     0.033 H 
ATOM     16  H4  <0> d           0.255  -2.566   0.500  0.00  0.00     0.033 H 
ENDBRANCH   1  13
BRANCH   3  17
ATOM     17  C8  <0> d          -1.328   2.096   0.020  0.00  0.00    -0.049 C 
ATOM     18  H7  <0> d          -1.640   2.269   1.050  0.00  0.00     0.033 H 
ATOM     19  H8  <0> d          -1.209   3.052  -0.489  0.00  0.00     0.033 H 
ATOM     20  H9  <0> d          -2.085   1.502  -0.494  0.00  0.00     0.033 H 
ENDBRANCH   3  17
TORSDOF 2
