REMARK  4 active torsions:
REMARK  status: ('A' for Active; 'I' for Inactive)
REMARK    1  A    between atoms: N1_5  and  C5_7 
REMARK    2  A    between atoms: C5_7  and  C6_8 
REMARK    3  A    between atoms: C6_8  and  C7_9 
REMARK    4  A    between atoms: C7_9  and  O2_10 
ROOT
ATOM      1  C1  <0> d          -2.518   1.895  -2.734  0.00  0.00    -0.042 C 
ATOM      2  C2  <0> d          -1.386   2.921  -2.976  0.00  0.00     0.011 C 
ATOM      3  C3  <0> d          -0.459   2.737  -1.795  0.00  0.00     0.219 C 
ATOM      4  O1  <0> d           0.396   3.526  -1.453  0.00  0.00    -0.273 OA
ATOM      5  N1  <0> d          -0.721   1.571  -1.179  0.00  0.00    -0.352 N 
ATOM      6  C4  <0> d          -1.804   0.844  -1.852  0.00  0.00    -0.002 C 
ATOM      7  H1  <0> d          -3.352   2.353  -2.204  0.00  0.00     0.036 H 
ATOM      8  H2  <0> d          -2.850   1.452  -3.673  0.00  0.00     0.036 H 
ATOM      9  H3  <0> d          -1.787   3.934  -2.993  0.00  0.00     0.047 H 
ATOM     10  H4  <0> d          -0.864   2.703  -3.908  0.00  0.00     0.047 H 
ATOM     11  H5  <0> d          -1.395   0.045  -2.470  0.00  0.00     0.064 H 
ATOM     12  H6  <0> d          -2.498   0.436  -1.117  0.00  0.00     0.064 H 
ENDROOT
BRANCH   5  13
ATOM     13  C5  <0> d          -0.013   1.086   0.008  0.00  0.00    -0.001 C 
ATOM     14  H7  <0> d           0.002  -0.004   0.002  0.00  0.00     0.064 H 
ATOM     15  H8  <0> d           1.010   1.463   0.000  0.00  0.00     0.064 H 
BRANCH  13  16
ATOM     16  C6  <0> d          -0.729   1.579   1.267  0.00  0.00    -0.030 C 
ATOM     17  H9  <0> d          -0.744   2.669   1.273  0.00  0.00     0.038 H 
ATOM     18  H10 <0> d          -1.751   1.202   1.275  0.00  0.00     0.038 H 
BRANCH  16  19
ATOM     19  C7  <0> d           0.011   1.072   2.506  0.00  0.00     0.018 C 
ATOM     20  H11 <0> d           0.026  -0.018   2.500  0.00  0.00     0.074 H 
ATOM     21  H12 <0> d           1.034   1.450   2.499  0.00  0.00     0.074 H 
BRANCH  19  22
ATOM     22  O2  <0> d          -0.658   1.533   3.682  0.00  0.00    -0.401 OA
ATOM     23  H13 <0> d          -0.242   1.249   4.508  0.00  0.00     0.209 HD
ENDBRANCH  19  22
ENDBRANCH  16  19
ENDBRANCH  13  16
ENDBRANCH   5  13
TORSDOF 4
