REMARK  8 active torsions:
REMARK  status: ('A' for Active; 'I' for Inactive)
REMARK    1  A    between atoms: C1_1  and  C2_2 
REMARK    2  A    between atoms: C2_2  and  C3_3 
REMARK       I    between atoms: C3_3  and  N1_5 
REMARK    3  A    between atoms: N1_5  and  C4_6 
REMARK    4  A    between atoms: C4_6  and  C5_7 
REMARK    5  A    between atoms: C5_7  and  O2_8 
REMARK    6  A    between atoms: O2_8  and  C6_9 
REMARK    7  A    between atoms: C6_9  and  C7_10 
REMARK    8  A    between atoms: C6_9  and  C8_11 
ROOT
ATOM      1  C4  <0> d          -3.014  -2.361   0.018  0.00  0.00     0.015 C 
ATOM      2  H7  <0> d          -3.525  -2.010   0.915  0.00  0.00     0.067 H 
ATOM      3  H8  <0> d          -3.542  -2.000  -0.865  0.00  0.00     0.067 H 
ENDROOT
BRANCH   1   4
ATOM      4  N1  <0> d          -1.640  -1.854   0.008  0.00  0.00    -0.359 N 
ATOM      5  C3  <0> d          -1.412  -0.526   0.013  0.00  0.00     0.217 C 
ATOM      6  O1  <0> d          -2.344   0.250   0.026  0.00  0.00    -0.274 OA
ATOM      7  H6  <0> d          -0.894  -2.474  -0.003  0.00  0.00     0.162 HD
BRANCH   5   8
ATOM      8  C2  <0> d           0.002  -0.004   0.002  0.00  0.00     0.006 C 
ATOM      9  H4  <0> d           0.512  -0.356  -0.895  0.00  0.00     0.046 H 
ATOM     10  H5  <0> d           0.529  -0.365   0.885  0.00  0.00     0.046 H 
BRANCH   8  11
ATOM     11  C1  <0> d          -0.019   1.526   0.010  0.00  0.00    -0.068 C 
ATOM     12  H1  <0> d           1.004   1.903   0.003  0.00  0.00     0.028 H 
ATOM     13  H2  <0> d          -0.546   1.887  -0.873  0.00  0.00     0.028 H 
ATOM     14  H3  <0> d          -0.529   1.877   0.907  0.00  0.00     0.028 H 
ENDBRANCH   8  11
ENDBRANCH   5   8
ENDBRANCH   1   4
BRANCH   1  15
ATOM     15  C5  <0> d          -2.994  -3.891   0.010  0.00  0.00     0.035 C 
ATOM     16  H9  <0> d          -4.013  -4.268  -0.072  0.00  0.00     0.076 H 
ATOM     17  H10 <0> d          -2.407  -4.242  -0.840  0.00  0.00     0.076 H 
BRANCH  15  18
ATOM     18  O2  <0> d          -2.406  -4.366   1.223  0.00  0.00    -0.385 OA
BRANCH  18  19
ATOM     19  C6  <0> d          -2.338  -5.790   1.317  0.00  0.00     0.031 C 
ATOM     20  H11 <0> d          -2.239  -6.216   0.318  0.00  0.00     0.082 H 
BRANCH  19  21
ATOM     21  C7  <0> d          -1.128  -6.188   2.163  0.00  0.00    -0.052 C 
ATOM     22  H12 <0> d          -1.227  -5.763   3.162  0.00  0.00     0.030 H 
ATOM     23  H13 <0> d          -1.076  -7.275   2.235  0.00  0.00     0.030 H 
ATOM     24  H14 <0> d          -0.218  -5.811   1.696  0.00  0.00     0.030 H 
ENDBRANCH  19  21
BRANCH  19  25
ATOM     25  C8  <0> d          -3.615  -6.320   1.972  0.00  0.00    -0.052 C 
ATOM     26  H15 <0> d          -4.478  -6.036   1.369  0.00  0.00     0.030 H 
ATOM     27  H16 <0> d          -3.563  -7.406   2.044  0.00  0.00     0.030 H 
ATOM     28  H17 <0> d          -3.715  -5.894   2.971  0.00  0.00     0.030 H 
ENDBRANCH  19  25
ENDBRANCH  18  19
ENDBRANCH  15  18
ENDBRANCH   1  15
TORSDOF 8
