REMARK  2 active torsions:
REMARK  status: ('A' for Active; 'I' for Inactive)
REMARK    1  A    between atoms: C1_1  and  S1_2 
REMARK    2  A    between atoms: S1_2  and  C2_5 
ROOT
ATOM      1  C2  <0> d          -1.231   3.129   0.030  0.00  0.00     0.061 A 
ATOM      2  C3  <0> d          -1.223   1.742   0.017  0.00  0.00    -0.045 A 
ATOM      3  C4  <0> d          -0.013   1.076   0.008  0.00  0.00     0.003 A 
ATOM      4  N1  <0> d           1.125   1.743   0.001  0.00  0.00    -0.273 NA
ATOM      5  C5  <0> d           1.155   3.061   0.007  0.00  0.00     0.003 A 
ATOM      6  C6  <0> d          -0.015   3.796   0.022  0.00  0.00    -0.045 A 
ATOM      7  H4  <0> d          -2.151   1.190   0.018  0.00  0.00     0.087 H 
ATOM      8  H5  <0> d           0.002  -0.004   0.002  0.00  0.00     0.114 H 
ATOM      9  H6  <0> d           2.107   3.573   0.001  0.00  0.00     0.114 H 
ATOM     10  H7  <0> d           0.016   4.875   0.027  0.00  0.00     0.087 H 
ENDROOT
BRANCH   1  11
ATOM     11  S1  <0> d          -2.749   4.022   0.048  0.00  0.00     0.172 S 
ATOM     12  O1  <0> d          -3.683   3.139   0.656  0.00  0.00    -0.223 OA
ATOM     13  O2  <0> d          -2.430   5.267   0.654  0.00  0.00    -0.223 OA
BRANCH  11  14
ATOM     14  C1  <0> d          -3.167   4.267  -1.700  0.00  0.00     0.020 C 
ATOM     15  H1  <0> d          -3.276   3.298  -2.187  0.00  0.00     0.049 H 
ATOM     16  H2  <0> d          -4.105   4.818  -1.776  0.00  0.00     0.049 H 
ATOM     17  H3  <0> d          -2.373   4.832  -2.188  0.00  0.00     0.049 H 
ENDBRANCH  11  14
ENDBRANCH   1  11
TORSDOF 2
