REMARK  2 active torsions:
REMARK  status: ('A' for Active; 'I' for Inactive)
REMARK    1  A    between atoms: C1_1  and  C2_2 
REMARK    2  A    between atoms: N2_6  and  C5_7 
ROOT
ATOM      1  C5  <0> d          -0.013   1.086   0.008  0.00  0.00     0.034 C 
ATOM      2  C6  <0> d          -0.763   1.597   1.255  0.00  0.00    -0.044 C 
ATOM      3  C7  <0> d          -1.531   2.845   0.750  0.00  0.00    -0.063 C 
ATOM      4  C8  <0> d          -1.978   2.421  -0.670  0.00  0.00    -0.063 C 
ATOM      5  C9  <0> d          -0.784   1.609  -1.216  0.00  0.00    -0.044 C 
ATOM      6  H6  <0> d           0.002  -0.004   0.002  0.00  0.00     0.075 H 
ATOM      7  H7  <0> d          -1.460   0.842   1.618  0.00  0.00     0.036 H 
ATOM      8  H8  <0> d          -0.057   1.874   2.038  0.00  0.00     0.036 H 
ATOM      9  H9  <0> d          -0.871   3.712   0.705  0.00  0.00     0.033 H 
ATOM     10  H10 <0> d          -2.395   3.052   1.382  0.00  0.00     0.033 H 
ATOM     11  H11 <0> d          -2.159   3.298  -1.292  0.00  0.00     0.033 H 
ATOM     12  H12 <0> d          -2.871   1.798  -0.619  0.00  0.00     0.033 H 
ATOM     13  H13 <0> d          -0.140   2.251  -1.817  0.00  0.00     0.036 H 
ATOM     14  H14 <0> d          -1.144   0.773  -1.816  0.00  0.00     0.036 H 
ENDROOT
BRANCH   1  15
ATOM     15  N2  <0> d           1.357   1.606  -0.002  0.00  0.00    -0.270 N 
ATOM     16  C2  <0> d           2.486   0.868  -0.030  0.00  0.00     0.028 A 
ATOM     17  C3  <0> d           3.537   1.721  -0.031  0.00  0.00    -0.041 A 
ATOM     18  C4  <0> d           3.032   3.025  -0.003  0.00  0.00     0.024 A 
ATOM     19  H4  <0> d           4.580   1.444  -0.050  0.00  0.00     0.088 H 
ATOM     20  N1  <0> d           1.725   2.958   0.009  0.00  0.00    -0.184 NA
ATOM     21  H5  <0> d           3.619   3.932   0.004  0.00  0.00     0.117 H 
BRANCH  16  22
ATOM     22  C1  <0> d           2.564  -0.637  -0.057  0.00  0.00    -0.036 C 
ATOM     23  H1  <0> d           2.568  -0.982  -1.091  0.00  0.00     0.035 H 
ATOM     24  H2  <0> d           3.478  -0.962   0.439  0.00  0.00     0.035 H 
ATOM     25  H3  <0> d           1.701  -1.054   0.462  0.00  0.00     0.035 H 
ENDBRANCH  16  22
ENDBRANCH   1  15
TORSDOF 2
