REMARK  2 active torsions:
REMARK  status: ('A' for Active; 'I' for Inactive)
REMARK    1  A    between atoms: C2_2  and  C3_3 
REMARK    2  A    between atoms: C4_4  and  C5_5 
ROOT
ATOM      1  C3  <0> d          -1.256  -0.753   0.010  0.00  0.00    -0.081 C 
ATOM      2  C4  <0> d          -1.237  -2.104   0.003  0.00  0.00    -0.050 C 
ATOM      3  H4  <0> d          -2.198  -0.226   0.022  0.00  0.00     0.083 H 
ATOM      4  H5  <0> d          -0.295  -2.631  -0.009  0.00  0.00     0.087 H 
ENDROOT
BRANCH   2   5
ATOM      5  C5  <0> d          -2.495  -2.853   0.011  0.00  0.00     0.074 A 
ATOM      6  O1  <0> d          -3.734  -2.321   0.026  0.00  0.00    -0.323 OA
ATOM      7  C8  <0> d          -4.643  -3.309   0.025  0.00  0.00     0.019 A 
ATOM      8  C7  <0> d          -3.997  -4.494   0.019  0.00  0.00    -0.059 A 
ATOM      9  H8  <0> d          -5.715  -3.178   0.032  0.00  0.00     0.123 H 
ATOM     10  C6  <0> d          -2.619  -4.213   0.010  0.00  0.00    -0.049 A 
ATOM     11  H7  <0> d          -4.453  -5.473   0.021  0.00  0.00     0.086 H 
ATOM     12  H6  <0> d          -1.815  -4.934   0.003  0.00  0.00     0.087 H 
ENDBRANCH   2   5
BRANCH   1  13
ATOM     13  C2  <0> d           0.002  -0.004   0.002  0.00  0.00    -0.092 C 
ATOM     14  C1  <0> d          -0.016   1.329   0.009  0.00  0.00    -0.121 C 
ATOM     15  H1  <0> d           0.912   1.882   0.004  0.00  0.00     0.066 H 
ATOM     16  H2  <0> d          -0.959   1.857   0.017  0.00  0.00     0.066 H 
ATOM     17  H3  <0> d           0.945  -0.531  -0.010  0.00  0.00     0.082 H 
ENDBRANCH   1  13
TORSDOF 2
