REMARK  6 active torsions:
REMARK  status: ('A' for Active; 'I' for Inactive)
REMARK    1  A    between atoms: C1_1  and  O1_2 
REMARK    2  A    between atoms: O1_2  and  C2_3 
REMARK    3  A    between atoms: C2_3  and  C3_5 
REMARK    4  A    between atoms: C3_5  and  N1_6 
REMARK    5  A    between atoms: N1_6  and  C4_7 
REMARK    6  A    between atoms: C4_7  and  C5_8 
ROOT
ATOM      1  C5  <0> d          -0.018   1.468   0.010  0.00  0.00     0.039 C 
ATOM      2  C6  <0> d           0.002  -0.004   0.002  0.00  0.00     0.060 C 
ATOM      3  N2  <0> d           0.018  -1.140  -0.004  0.00  0.00    -0.197 NA
ATOM      4  H9  <0> d          -0.550   1.832  -0.881  0.00  0.00     0.057 H 
ATOM      5  H10 <0> d           1.014   1.849   0.002  0.00  0.00     0.057 H 
ENDROOT
BRANCH   1   6
ATOM      6  C4  <0> d          -0.734   1.961   1.269  0.00  0.00     0.123 C 
ATOM      7  H7  <0> d          -0.202   1.597   2.160  0.00  0.00     0.081 H 
ATOM      8  H8  <0> d          -1.766   1.580   1.277  0.00  0.00     0.081 H 
BRANCH   6   9
ATOM      9  N1  <0> d          -0.754   3.430   1.277  0.00  0.00     0.093 N 
ATOM     10  H6  <0> d          -1.281   3.781   0.377  0.00  0.00     0.316 HD
BRANCH   9  11
ATOM     11  C3  <0> d          -1.435   3.941   2.474  0.00  0.00     0.190 C 
ATOM     12  H4  <0> d          -0.908   3.590   3.374  0.00  0.00     0.095 H 
ATOM     13  H5  <0> d          -2.472   3.574   2.490  0.00  0.00     0.095 H 
BRANCH  11  14
ATOM     14  C2  <0> d          -1.436   5.447   2.447  0.00  0.00     0.286 C 
ATOM     15  O2  <0> d          -0.922   6.036   1.526  0.00  0.00    -0.263 OA
BRANCH  14  16
ATOM     16  O1  <0> d          -2.008   6.136   3.447  0.00  0.00    -0.325 OA
BRANCH  16  17
ATOM     17  C1  <0> d          -1.971   7.585   3.356  0.00  0.00     0.013 C 
ATOM     18  H1  <0> d          -2.471   8.021   4.233  0.00  0.00     0.067 H 
ATOM     19  H2  <0> d          -2.489   7.907   2.440  0.00  0.00     0.067 H 
ATOM     20  H3  <0> d          -0.925   7.924   3.324  0.00  0.00     0.067 H 
ENDBRANCH  16  17
ENDBRANCH  14  16
ENDBRANCH  11  14
ENDBRANCH   9  11
ENDBRANCH   6   9
ENDBRANCH   1   6
TORSDOF 6
