REMARK  6 active torsions:
REMARK  status: ('A' for Active; 'I' for Inactive)
REMARK    1  A    between atoms: C1_1  and  C2_2 
REMARK    2  A    between atoms: C2_2  and  O2_4 
REMARK    3  A    between atoms: O2_4  and  C3_5 
REMARK    4  A    between atoms: C5_8  and  C6_10 
REMARK    5  A    between atoms: C6_10  and  O4_12 
REMARK    6  A    between atoms: O4_12  and  C7_13 
ROOT
ATOM      1  C3  <0> d          -1.136   1.773   0.788  0.00  0.00     0.061 A 
ATOM      2  H1  <0> d          -1.859   1.135   1.295  0.00  0.00     0.085 H 
ATOM      3  C4  <0> d          -1.150   1.781  -0.743  0.00  0.00    -0.025 A 
ATOM      4  C5  <0> d          -0.013   1.086   0.008  0.00  0.00     0.058 A 
ATOM      5  H2  <0> d           0.002  -0.004   0.002  0.00  0.00     0.059 H 
ATOM      6  H6  <0> d          -0.922   2.722  -1.243  0.00  0.00     0.038 H 
ATOM      7  H7  <0> d          -1.883   1.149  -1.243  0.00  0.00     0.038 H 
ENDROOT
BRANCH   1   8
ATOM      8  O2  <0> d          -0.818   3.019   1.462  0.00  0.00    -0.315 OA
BRANCH   8   9
ATOM      9  C2  <0> d          -1.506   3.299   2.580  0.00  0.00     0.255 C 
ATOM     10  O1  <0> d          -2.344   2.528   2.983  0.00  0.00    -0.266 OA
BRANCH   9  11
ATOM     11  C1  <0> d          -1.231   4.575   3.334  0.00  0.00     0.004 C 
ATOM     12  H3  <0> d          -1.878   5.366   2.957  0.00  0.00     0.041 H 
ATOM     13  H4  <0> d          -1.428   4.420   4.395  0.00  0.00     0.041 H 
ATOM     14  H5  <0> d          -0.188   4.861   3.196  0.00  0.00     0.041 H 
ENDBRANCH   9  11
ENDBRANCH   8   9
ENDBRANCH   1   8
BRANCH   4  15
ATOM     15  C6  <0> d           1.338   1.754  -0.001  0.00  0.00     0.265 C 
ATOM     16  O3  <0> d           1.502   2.793   0.594  0.00  0.00    -0.265 OA
BRANCH  15  17
ATOM     17  O4  <0> d           2.358   1.196  -0.671  0.00  0.00    -0.326 OA
BRANCH  17  18
ATOM     18  C7  <0> d           3.631   1.895  -0.636  0.00  0.00     0.013 C 
ATOM     19  H8  <0> d           3.510   2.891  -1.063  0.00  0.00     0.067 H 
ATOM     20  H9  <0> d           3.970   1.981   0.396  0.00  0.00     0.067 H 
ATOM     21  H10 <0> d           4.367   1.338  -1.216  0.00  0.00     0.067 H 
ENDBRANCH  17  18
ENDBRANCH  15  17
ENDBRANCH   4  15
TORSDOF 6
