REMARK  4 active torsions:
REMARK  status: ('A' for Active; 'I' for Inactive)
REMARK    1  A    between atoms: C1_1  and  C2_2 
REMARK    2  A    between atoms: C2_2  and  O1_3 
REMARK    3  A    between atoms: O1_3  and  C3_4 
REMARK    4  A    between atoms: C3_4  and  C4_6 
ROOT
ATOM      1  C4  <0> d           1.518   1.476  -0.004  0.00  0.00     0.136 C 
ATOM      2  C5  <0> d          -0.019   1.534   0.011  0.00  0.00    -0.037 C 
ATOM      3  C6  <0> d           0.002  -0.004   0.002  0.00  0.00    -0.061 C 
ATOM      4  C7  <0> d           1.381   0.097  -0.670  0.00  0.00    -0.037 C 
ATOM      5  C8  <0> d           2.119   1.426   1.338  0.00  0.00     0.079 C 
ATOM      6  N1  <0> d           2.583   1.387   2.374  0.00  0.00    -0.196 NA
ATOM      7  H6  <0> d          -0.448   1.969  -0.892  0.00  0.00     0.036 H 
ATOM      8  H7  <0> d          -0.431   1.960   0.925  0.00  0.00     0.036 H 
ATOM      9  H8  <0> d           0.033  -0.446   0.998  0.00  0.00     0.033 H 
ATOM     10  H9  <0> d          -0.763  -0.448  -0.635  0.00  0.00     0.033 H 
ATOM     11  H10 <0> d           2.100  -0.637  -0.305  0.00  0.00     0.036 H 
ATOM     12  H11 <0> d           1.335   0.140  -1.758  0.00  0.00     0.036 H 
ENDROOT
BRANCH   1  13
ATOM     13  C3  <0> d           2.152   2.515  -0.893  0.00  0.00     0.281 C 
ATOM     14  O2  <0> d           1.458   3.290  -1.508  0.00  0.00    -0.263 OA
BRANCH  13  15
ATOM     15  O1  <0> d           3.489   2.580  -1.001  0.00  0.00    -0.320 OA
BRANCH  15  16
ATOM     16  C2  <0> d           4.030   3.606  -1.875  0.00  0.00     0.025 C 
ATOM     17  H4  <0> d           3.661   3.451  -2.889  0.00  0.00     0.074 H 
ATOM     18  H5  <0> d           3.717   4.588  -1.520  0.00  0.00     0.074 H 
BRANCH  16  19
ATOM     19  C1  <0> d           5.558   3.525  -1.870  0.00  0.00    -0.056 C 
ATOM     20  H1  <0> d           5.964   4.295  -2.526  0.00  0.00     0.030 H 
ATOM     21  H2  <0> d           5.927   3.680  -0.856  0.00  0.00     0.030 H 
ATOM     22  H3  <0> d           5.871   2.543  -2.225  0.00  0.00     0.030 H 
ENDBRANCH  16  19
ENDBRANCH  15  16
ENDBRANCH  13  15
ENDBRANCH   1  13
TORSDOF 4
