REMARK  1 active torsions:
REMARK  status: ('A' for Active; 'I' for Inactive)
REMARK    1  A    between atoms: C1_1  and  C2_2 
ROOT
ATOM      1  C2  <0> d           2.377   0.005  -0.021  0.00  0.00     0.036 A 
ATOM      2  C3  <0> d           2.350   1.357  -0.013  0.00  0.00    -0.006 A 
ATOM      3  C4  <0> d           1.107   2.024   0.002  0.00  0.00     0.220 A 
ATOM      4  N1  <0> d          -0.016   1.335   0.009  0.00  0.00    -0.033 NA
ATOM      5  C5  <0> d           0.002  -0.004   0.002  0.00  0.00     0.755 A 
ATOM      6  N2  <0> d           1.196  -0.681  -0.013  0.00  0.00    -0.139 N 
ATOM      7  C6  <0> d           0.877  -2.006  -0.017  0.00  0.00     0.110 A 
ATOM      8  N3  <0> d          -0.426  -2.094  -0.005  0.00  0.00    -0.128 NA
ATOM      9  N4  <0> d          -0.953  -0.920   0.006  0.00  0.00     0.045 NA
ATOM     10  O1  <0> d           1.069   3.378   0.009  0.00  0.00    -0.170 OA
ATOM     11  H4  <0> d           3.271   1.921  -0.018  0.00  0.00     0.093 H 
ATOM     12  H5  <0> d           1.573  -2.832  -0.029  0.00  0.00     0.148 H 
ENDROOT
BRANCH   1  13
ATOM     13  C1  <0> d           3.690  -0.733  -0.038  0.00  0.00    -0.036 C 
ATOM     14  H1  <0> d           4.518  -0.009  -0.042  0.00  0.00     0.035 H 
ATOM     15  H2  <0> d           3.747  -1.360  -0.940  0.00  0.00     0.035 H 
ATOM     16  H3  <0> d           3.764  -1.370   0.856  0.00  0.00     0.035 H 
ENDBRANCH   1  13
TORSDOF 1
