REMARK  3 active torsions:
REMARK  status: ('A' for Active; 'I' for Inactive)
REMARK    1  A    between atoms: C1_1  and  N6_8 
REMARK    2  A    between atoms: C2_4  and  N5_7 
REMARK    3  A    between atoms: N3_5  and  N4_6 
ROOT
ATOM      1  C1  <0> d          -0.016   1.362   0.009  0.00  0.00     0.748 A 
ATOM      2  N1  <0> d           1.224   1.784  -0.000  0.00  0.00     0.060 NA
ATOM      3  N2  <0> d           2.063   0.661  -0.014  0.00  0.00     0.060 NA
ATOM      4  C2  <0> d           1.307  -0.409  -0.013  0.00  0.00     0.748 A 
ATOM      5  N3  <0> d           0.002  -0.004   0.002  0.00  0.00     0.069 N 
ENDROOT
BRANCH   1   6
ATOM      6  N6  <0> d          -1.151   2.163   0.030  0.00  0.00    -0.229 N 
ATOM      7  H5  <0> d          -2.032   1.756   0.040  0.00  0.00     0.174 HD
ATOM      8  H6  <0> d          -1.063   3.129   0.034  0.00  0.00     0.174 HD
ENDBRANCH   1   6
BRANCH   5   9
ATOM      9  N4  <0> d          -1.092  -0.822   0.009  0.00  0.00    -0.212 NA
ATOM     10  H1  <0> d          -1.391  -1.033  -0.931  0.00  0.00     0.144 HD
ATOM     11  H2  <0> d          -0.909  -1.667   0.528  0.00  0.00     0.144 HD
ENDBRANCH   5   9
BRANCH   4  12
ATOM     12  N5  <0> d           1.753  -1.724  -0.024  0.00  0.00    -0.229 N 
ATOM     13  H3  <0> d           2.705  -1.913  -0.034  0.00  0.00     0.174 HD
ATOM     14  H4  <0> d           1.114  -2.453  -0.022  0.00  0.00     0.174 HD
ENDBRANCH   4  12
TORSDOF 3
