REMARK  0 active torsions:
REMARK  status: ('A' for Active; 'I' for Inactive)
ROOT
ATOM      1  C1  <0> d          -1.499   5.011  -0.076  0.00  0.00    -0.051 A 
ATOM      2  C2  <0> d          -1.423   5.205  -1.410  0.00  0.00    -0.022 A 
ATOM      3  N1  <0> d          -1.137   4.011  -2.018  0.00  0.00    -0.368 N 
ATOM      4  H1  <0> d          -1.034   3.962  -3.112  0.00  0.00     0.165 HD
ATOM      5  C3  <0> d          -1.023   3.045  -1.106  0.00  0.00     0.026 A 
ATOM      6  C4  <0> d          -1.240   3.601   0.137  0.00  0.00     0.055 A 
ATOM      7  C5  <0> d          -1.188   2.781   1.357  0.00  0.00     0.253 C 
ATOM      8  O1  <0> d          -1.597   3.197   2.424  0.00  0.00    -0.268 OA
ATOM      9  N2  <0> d          -0.663   1.540   1.230  0.00  0.00    -0.356 N 
ATOM     10  C6  <0> d          -0.013   1.086   0.008  0.00  0.00     0.000 C 
ATOM     11  C7  <0> d          -0.719   1.576  -1.256  0.00  0.00    -0.011 C 
ATOM     12  H2  <0> d          -1.709   5.754   0.679  0.00  0.00     0.087 H 
ATOM     13  H3  <0> d          -1.565   6.149  -1.916  0.00  0.00     0.111 H 
ATOM     14  H4  <0> d          -0.741   0.865   2.095  0.00  0.00     0.162 HD
ATOM     15  H5  <0> d           1.021   1.460  -0.018  0.00  0.00     0.064 H 
ATOM     16  H6  <0> d          -0.005  -0.014  -0.016  0.00  0.00     0.064 H 
ATOM     17  H7  <0> d          -1.658   1.020  -1.397  0.00  0.00     0.044 H 
ATOM     18  H8  <0> d          -0.068   1.424  -2.129  0.00  0.00     0.044 H 
ENDROOT
TORSDOF 0
