REMARK  4 active torsions:
REMARK  status: ('A' for Active; 'I' for Inactive)
REMARK    1  A    between atoms: C1_1  and  C2_2 
REMARK    2  A    between atoms: C1_1  and  C6_8 
REMARK    3  A    between atoms: C3_3  and  C4_4 
REMARK    4  A    between atoms: C4_4  and  C5_5 
REMARK       I    between atoms: C5_5  and  N1_7 
REMARK       I    between atoms: C6_8  and  N2_10 
ROOT
ATOM      1  C2  <0> d          -0.016   1.306   0.009  0.00  0.00    -0.098 C 
ATOM      2  C3  <0> d           0.002  -0.004   0.002  0.00  0.00    -0.098 C 
ATOM      3  H3  <0> d           0.912   1.859   0.003  0.00  0.00     0.077 H 
ATOM      4  H4  <0> d          -0.926  -0.557   0.008  0.00  0.00     0.077 H 
ENDROOT
BRANCH   1   5
ATOM      5  C1  <0> d          -1.331   2.042   0.019  0.00  0.00     0.024 C 
ATOM      6  H1  <0> d          -1.440   2.603  -0.908  0.00  0.00     0.053 H 
ATOM      7  H2  <0> d          -2.147   1.325   0.109  0.00  0.00     0.053 H 
BRANCH   5   8
ATOM      8  C6  <0> d          -1.366   2.992   1.189  0.00  0.00     0.218 C 
ATOM      9  O2  <0> d          -0.416   3.064   1.940  0.00  0.00    -0.274 OA
ATOM     10  N2  <0> d          -2.452   3.761   1.400  0.00  0.00    -0.370 N 
ATOM     11  H9  <0> d          -3.212   3.703   0.799  0.00  0.00     0.159 HD
ATOM     12  H10 <0> d          -2.475   4.372   2.152  0.00  0.00     0.159 HD
ENDBRANCH   5   8
ENDBRANCH   1   5
BRANCH   2  13
ATOM     13  C4  <0> d           1.317  -0.740  -0.015  0.00  0.00     0.024 C 
ATOM     14  H5  <0> d           1.413  -1.291  -0.950  0.00  0.00     0.053 H 
ATOM     15  H6  <0> d           2.135  -0.024   0.071  0.00  0.00     0.053 H 
BRANCH  13  16
ATOM     16  C5  <0> d           1.369  -1.702   1.144  0.00  0.00     0.218 C 
ATOM     17  O1  <0> d           0.430  -1.783   1.907  0.00  0.00    -0.274 OA
ATOM     18  N1  <0> d           2.458  -2.474   1.331  0.00  0.00    -0.370 N 
ATOM     19  H7  <0> d           3.209  -2.409   0.720  0.00  0.00     0.159 HD
ATOM     20  H8  <0> d           2.491  -3.093   2.076  0.00  0.00     0.159 HD
ENDBRANCH  13  16
ENDBRANCH   2  13
TORSDOF 4
