REMARK  4 active torsions:
REMARK  status: ('A' for Active; 'I' for Inactive)
REMARK    1  A    between atoms: C1_1  and  C2_2 
REMARK    2  A    between atoms: C2_2  and  C3_4 
REMARK    3  A    between atoms: C2_2  and  C8_10 
REMARK    4  A    between atoms: C3_4  and  C4_5 
ROOT
ATOM      1  C3  <0> d          -2.164   1.050   1.278  0.00  0.00    -0.008 C 
ATOM      2  H5  <0> d          -2.152  -0.036   1.182  0.00  0.00     0.044 H 
ATOM      3  H6  <0> d          -2.647   1.326   2.215  0.00  0.00     0.044 H 
ENDROOT
BRANCH   1   4
ATOM      4  C2  <0> d          -0.729   1.579   1.267  0.00  0.00     0.033 C 
ATOM      5  H1  <0> d          -0.744   2.669   1.273  0.00  0.00     0.056 H 
BRANCH   4   6
ATOM      6  C1  <0> d          -0.013   1.086   0.008  0.00  0.00    -0.063 C 
ATOM      7  H2  <0> d           0.002  -0.004   0.002  0.00  0.00     0.028 H 
ATOM      8  H3  <0> d           1.010   1.463   0.000  0.00  0.00     0.028 H 
ATOM      9  H4  <0> d          -0.540   1.447  -0.875  0.00  0.00     0.028 H 
ENDBRANCH   4   6
BRANCH   4  10
ATOM     10  C8  <0> d           0.000   1.080   2.488  0.00  0.00     0.176 C 
ATOM     11  O2  <0> d          -0.570   0.373   3.285  0.00  0.00    -0.648 OA
ATOM     12  O3  <0> d           1.283   1.421   2.690  0.00  0.00    -0.648 OA
ENDBRANCH   4  10
ENDBRANCH   1   4
BRANCH   1  13
ATOM     13  C4  <0> d          -2.929   1.647   0.124  0.00  0.00     0.053 A 
ATOM     14  O1  <0> d          -3.630   2.792   0.155  0.00  0.00    -0.327 OA
ATOM     15  C7  <0> d          -4.178   3.014  -1.050  0.00  0.00     0.019 A 
ATOM     16  C6  <0> d          -3.830   2.004  -1.868  0.00  0.00    -0.059 A 
ATOM     17  H9  <0> d          -4.795   3.859  -1.318  0.00  0.00     0.123 H 
ATOM     18  C5  <0> d          -3.020   1.126  -1.113  0.00  0.00    -0.052 A 
ATOM     19  H8  <0> d          -4.111   1.889  -2.905  0.00  0.00     0.086 H 
ATOM     20  H7  <0> d          -2.564   0.211  -1.461  0.00  0.00     0.087 H 
ENDBRANCH   1  13
TORSDOF 4
