REMARK  4 active torsions:
REMARK  status: ('A' for Active; 'I' for Inactive)
REMARK    1  A    between atoms: C1_1  and  C2_2 
REMARK    2  A    between atoms: C2_2  and  C3_3 
REMARK    3  A    between atoms: C2_2  and  C4_4 
REMARK    4  A    between atoms: C2_2  and  O1_11 
ROOT
ATOM      1  C2  <0> d           0.002  -0.004   0.002  0.00  0.00     0.082 C 
ENDROOT
BRANCH   1   2
ATOM      2  C1  <0> d          -0.019   1.526   0.010  0.00  0.00    -0.044 C 
ATOM      3  H1  <0> d           1.004   1.903   0.003  0.00  0.00     0.032 H 
ATOM      4  H2  <0> d          -0.546   1.887  -0.873  0.00  0.00     0.032 H 
ATOM      5  H3  <0> d          -0.529   1.877   0.907  0.00  0.00     0.032 H 
ENDBRANCH   1   2
BRANCH   1   6
ATOM      6  C3  <0> d           0.742  -0.511   1.242  0.00  0.00    -0.044 C 
ATOM      7  H4  <0> d           0.232  -0.159   2.138  0.00  0.00     0.032 H 
ATOM      8  H5  <0> d           0.757  -1.601   1.236  0.00  0.00     0.032 H 
ATOM      9  H6  <0> d           1.765  -0.134   1.234  0.00  0.00     0.032 H 
ENDBRANCH   1   6
BRANCH   1  10
ATOM     10  C4  <0> d          -1.412  -0.526   0.013  0.00  0.00     0.033 A 
ATOM     11  C8  <0> d          -2.267  -0.214   1.057  0.00  0.00     0.218 A 
ATOM     12  N1  <0> d          -3.508  -0.664   1.069  0.00  0.00    -0.232 NA
ATOM     13  F1  <0> d          -1.828   0.564   2.071  0.00  0.00    -0.184 F 
ATOM     14  C7  <0> d          -3.977  -1.430   0.103  0.00  0.00     0.005 A 
ATOM     15  C6  <0> d          -3.180  -1.786  -0.967  0.00  0.00    -0.065 A 
ATOM     16  H9  <0> d          -4.997  -1.783   0.149  0.00  0.00     0.114 H 
ATOM     17  C5  <0> d          -1.871  -1.328  -1.019  0.00  0.00    -0.068 A 
ATOM     18  H8  <0> d          -3.571  -2.413  -1.755  0.00  0.00     0.085 H 
ATOM     19  H7  <0> d          -1.226  -1.591  -1.844  0.00  0.00     0.084 H 
ENDBRANCH   1  10
BRANCH   1  20
ATOM     20  O1  <0> d           0.671  -0.465  -1.174  0.00  0.00    -0.386 OA
ATOM     21  H10 <0> d           1.588  -0.167  -1.247  0.00  0.00     0.211 HD
ENDBRANCH   1  20
TORSDOF 4
