REMARK  0 active torsions:
REMARK  status: ('A' for Active; 'I' for Inactive)
ROOT
ATOM      1  C1  <0> d          -0.018   1.489   0.010  0.00  0.00    -0.064 C 
ATOM      2  C2  <0> d           1.333   2.124   0.001  0.00  0.00    -0.060 C 
ATOM      3  C3  <0> d           1.889   2.303  -1.396  0.00  0.00    -0.025 C 
ATOM      4  C4  <0> d           2.062   0.943  -2.067  0.00  0.00     0.036 A 
ATOM      5  C5  <0> d           1.381  -0.145  -2.067  0.00  0.00     0.036 A 
ATOM      6  N1  <0> d           2.046  -1.080  -2.886  0.00  0.00    -0.310 N 
ATOM      7  H1  <0> d           1.754  -1.987  -3.067  0.00  0.00     0.170 HD
ATOM      8  C6  <0> d           3.151  -0.496  -3.371  0.00  0.00     0.324 A 
ATOM      9  O1  <0> d           3.967  -1.007  -4.117  0.00  0.00    -0.247 OA
ATOM     10  N2  <0> d           3.193   0.754  -2.886  0.00  0.00    -0.310 N 
ATOM     11  H2  <0> d           3.882   1.412  -3.068  0.00  0.00     0.170 HD
ATOM     12  C7  <0> d           0.083  -0.583  -1.395  0.00  0.00    -0.025 C 
ATOM     13  C8  <0> d           0.002  -0.004   0.002  0.00  0.00    -0.060 C 
ATOM     14  H3  <0> d          -0.551   1.823   0.901  0.00  0.00     0.033 H 
ATOM     15  H4  <0> d          -0.568   1.832  -0.866  0.00  0.00     0.033 H 
ATOM     16  H5  <0> d           1.266   3.100   0.480  0.00  0.00     0.033 H 
ATOM     17  H6  <0> d           2.019   1.500   0.574  0.00  0.00     0.033 H 
ATOM     18  H7  <0> d           1.201   2.911  -1.984  0.00  0.00     0.042 H 
ATOM     19  H8  <0> d           2.855   2.804  -1.340  0.00  0.00     0.042 H 
ATOM     20  H9  <0> d          -0.765  -0.231  -1.982  0.00  0.00     0.042 H 
ATOM     21  H10 <0> d           0.054  -1.671  -1.338  0.00  0.00     0.042 H 
ATOM     22  H11 <0> d           0.863  -0.347   0.575  0.00  0.00     0.033 H 
ATOM     23  H12 <0> d          -0.905  -0.370   0.482  0.00  0.00     0.033 H 
ENDROOT
TORSDOF 0
