REMARK  7 active torsions:
REMARK  status: ('A' for Active; 'I' for Inactive)
REMARK    1  A    between atoms: C1_1  and  C2_2 
REMARK    2  A    between atoms: C2_2  and  C3_3 
REMARK    3  A    between atoms: C2_2  and  C4_4 
REMARK    4  A    between atoms: C4_4  and  C5_5 
REMARK       I    between atoms: C5_5  and  N1_7 
REMARK    5  A    between atoms: N1_7  and  C6_8 
REMARK    6  A    between atoms: C6_8  and  C7_9 
REMARK    7  A    between atoms: C6_8  and  C8_10 
ROOT
ATOM      1  C5  <0> d           2.318   0.933  -0.685  0.00  0.00     0.218 C 
ATOM      2  O1  <0> d           2.042  -0.081  -1.290  0.00  0.00    -0.274 OA
ATOM      3  N1  <0> d           1.362   1.593  -0.002  0.00  0.00    -0.357 N 
ATOM      4  H10 <0> d           1.583   2.404   0.482  0.00  0.00     0.162 HD
ENDROOT
BRANCH   1   5
ATOM      5  C4  <0> d           3.732   1.454  -0.695  0.00  0.00     0.012 C 
ATOM      6  H8  <0> d           3.747   2.456  -1.124  0.00  0.00     0.047 H 
ATOM      7  H9  <0> d           4.114   1.491   0.325  0.00  0.00     0.047 H 
BRANCH   5   8
ATOM      8  C2  <0> d           4.612   0.527  -1.536  0.00  0.00    -0.053 C 
ATOM      9  H4  <0> d           4.527  -0.493  -1.160  0.00  0.00     0.039 H 
BRANCH   8  10
ATOM     10  C1  <0> d           4.152   0.572  -2.995  0.00  0.00    -0.073 C 
ATOM     11  H1  <0> d           4.779  -0.088  -3.594  0.00  0.00     0.028 H 
ATOM     12  H2  <0> d           3.114   0.246  -3.059  0.00  0.00     0.028 H 
ATOM     13  H3  <0> d           4.237   1.592  -3.371  0.00  0.00     0.028 H 
ENDBRANCH   8  10
BRANCH   8  14
ATOM     14  C3  <0> d           6.069   0.985  -1.446  0.00  0.00    -0.073 C 
ATOM     15  H5  <0> d           6.396   0.953  -0.406  0.00  0.00     0.028 H 
ATOM     16  H6  <0> d           6.695   0.324  -2.045  0.00  0.00     0.028 H 
ATOM     17  H7  <0> d           6.153   2.005  -1.821  0.00  0.00     0.028 H 
ENDBRANCH   8  14
ENDBRANCH   5   8
ENDBRANCH   1   5
BRANCH   3  18
ATOM     18  C6  <0> d          -0.013   1.086   0.008  0.00  0.00     0.005 C 
ATOM     19  H11 <0> d           0.002  -0.004   0.002  0.00  0.00     0.071 H 
BRANCH  18  20
ATOM     20  C7  <0> d          -0.753   1.593  -1.232  0.00  0.00    -0.058 C 
ATOM     21  H12 <0> d          -0.242   1.241  -2.128  0.00  0.00     0.030 H 
ATOM     22  H13 <0> d          -1.775   1.215  -1.224  0.00  0.00     0.030 H 
ATOM     23  H14 <0> d          -0.767   2.683  -1.226  0.00  0.00     0.030 H 
ENDBRANCH  18  20
BRANCH  18  24
ATOM     24  C8  <0> d          -0.729   1.579   1.267  0.00  0.00    -0.058 C 
ATOM     25  H15 <0> d          -0.744   2.669   1.273  0.00  0.00     0.030 H 
ATOM     26  H16 <0> d          -1.751   1.202   1.275  0.00  0.00     0.030 H 
ATOM     27  H17 <0> d          -0.202   1.218   2.150  0.00  0.00     0.030 H 
ENDBRANCH  18  24
ENDBRANCH   3  18
TORSDOF 7
