REMARK  4 active torsions:
REMARK  status: ('A' for Active; 'I' for Inactive)
REMARK    1  A    between atoms: C1_1  and  C2_2 
REMARK    2  A    between atoms: C2_2  and  O1_3 
REMARK    3  A    between atoms: O1_3  and  C3_4 
REMARK    4  A    between atoms: C3_4  and  C4_6 
ROOT
ATOM      1  O1  <0> d          -1.090   3.553   0.027  0.00  0.00    -0.315 OA
ENDROOT
BRANCH   1   2
ATOM      2  C2  <0> d          -2.313   4.335   0.037  0.00  0.00     0.026 C 
ATOM      3  H4  <0> d          -2.900   4.103  -0.851  0.00  0.00     0.074 H 
ATOM      4  H5  <0> d          -2.891   4.094   0.929  0.00  0.00     0.074 H 
BRANCH   2   5
ATOM      5  C1  <0> d          -1.964   5.825   0.043  0.00  0.00    -0.056 C 
ATOM      6  H1  <0> d          -1.377   6.057   0.932  0.00  0.00     0.030 H 
ATOM      7  H2  <0> d          -1.386   6.067  -0.848  0.00  0.00     0.030 H 
ATOM      8  H3  <0> d          -2.882   6.413   0.051  0.00  0.00     0.030 H 
ENDBRANCH   2   5
ENDBRANCH   1   2
BRANCH   1   9
ATOM      9  C3  <0> d          -1.222   2.213   0.020  0.00  0.00     0.333 C 
ATOM     10  O2  <0> d          -2.328   1.712   0.023  0.00  0.00    -0.256 OA
BRANCH   9  11
ATOM     11  C4  <0> d          -0.016   1.348   0.009  0.00  0.00     0.254 A 
ATOM     12  N2  <0> d           1.227   1.751  -0.000  0.00  0.00    -0.101 NA
ATOM     13  O3  <0> d           1.975   0.796  -0.013  0.00  0.00    -0.204 OA
ATOM     14  C5  <0> d           1.268  -0.339  -0.012  0.00  0.00     0.130 A 
ATOM     15  N1  <0> d           0.002  -0.004   0.002  0.00  0.00    -0.208 NA
ATOM     16  H6  <0> d           1.666  -1.342  -0.021  0.00  0.00     0.159 H 
ENDBRANCH   9  11
ENDBRANCH   1   9
TORSDOF 4
