REMARK  0 active torsions:
REMARK  status: ('A' for Active; 'I' for Inactive)
ROOT
ATOM      1  C1  <0> d          -0.019   1.529   0.011  0.00  0.00    -0.060 C 
ATOM      2  C2  <0> d           1.419   2.057  -0.000  0.00  0.00    -0.060 C 
ATOM      3  C3  <0> d           2.084   1.750   1.347  0.00  0.00    -0.025 C 
ATOM      4  C4  <0> d           1.858   0.294   1.671  0.00  0.00     0.036 A 
ATOM      5  C5  <0> d           0.946  -0.476   1.080  0.00  0.00     0.036 A 
ATOM      6  N1  <0> d           1.032  -1.740   1.632  0.00  0.00    -0.310 N 
ATOM      7  H1  <0> d           0.488  -2.506   1.391  0.00  0.00     0.170 HD
ATOM      8  C6  <0> d           2.009  -1.721   2.563  0.00  0.00     0.324 A 
ATOM      9  O1  <0> d           2.360  -2.663   3.250  0.00  0.00    -0.247 OA
ATOM     10  N2  <0> d           2.529  -0.476   2.602  0.00  0.00    -0.310 N 
ATOM     11  H2  <0> d           3.247  -0.176   3.180  0.00  0.00     0.170 HD
ATOM     12  C7  <0> d           0.002  -0.004   0.002  0.00  0.00    -0.025 C 
ATOM     13  H3  <0> d          -0.528   1.881   0.907  0.00  0.00     0.033 H 
ATOM     14  H4  <0> d          -0.545   1.891  -0.873  0.00  0.00     0.033 H 
ATOM     15  H5  <0> d           1.978   1.572  -0.801  0.00  0.00     0.033 H 
ATOM     16  H6  <0> d           1.409   3.135  -0.164  0.00  0.00     0.033 H 
ATOM     17  H7  <0> d           3.153   1.950   1.282  0.00  0.00     0.042 H 
ATOM     18  H8  <0> d           1.639   2.372   2.124  0.00  0.00     0.042 H 
ATOM     19  H9  <0> d          -1.000  -0.385   0.200  0.00  0.00     0.042 H 
ATOM     20  H10 <0> d           0.347  -0.360  -0.969  0.00  0.00     0.042 H 
ENDROOT
TORSDOF 0
