REMARK  3 active torsions:
REMARK  status: ('A' for Active; 'I' for Inactive)
REMARK    1  A    between atoms: C1_1  and  O1_2 
REMARK    2  A    between atoms: O1_2  and  C2_3 
REMARK    3  A    between atoms: C4_5  and  N2_9 
ROOT
ATOM      1  C2  <0> d          -2.495   3.675   0.034  0.00  0.00     0.165 A 
ATOM      2  C3  <0> d          -1.265   3.037   0.030  0.00  0.00    -0.007 A 
ATOM      3  C4  <0> d          -1.226   1.645   0.017  0.00  0.00     0.031 A 
ATOM      4  C5  <0> d          -2.436   0.948   0.019  0.00  0.00    -0.041 A 
ATOM      5  C6  <0> d          -3.618   1.655   0.029  0.00  0.00     0.007 A 
ATOM      6  N1  <0> d          -3.619   2.976   0.036  0.00  0.00    -0.237 NA
ATOM      7  H4  <0> d          -0.350   3.611   0.034  0.00  0.00     0.093 H 
ATOM      8  H5  <0> d          -2.445  -0.132   0.012  0.00  0.00     0.089 H 
ATOM      9  H6  <0> d          -4.557   1.121   0.030  0.00  0.00     0.115 H 
ENDROOT
BRANCH   1  10
ATOM     10  O1  <0> d          -2.548   5.031   0.042  0.00  0.00    -0.339 OA
BRANCH  10  11
ATOM     11  C1  <0> d          -3.846   5.629   0.051  0.00  0.00     0.012 C 
ATOM     12  H1  <0> d          -3.744   6.724   0.057  0.00  0.00     0.067 H 
ATOM     13  H2  <0> d          -4.392   5.307   0.950  0.00  0.00     0.067 H 
ATOM     14  H3  <0> d          -4.400   5.317  -0.846  0.00  0.00     0.067 H 
ENDBRANCH  10  11
ENDBRANCH   1  10
BRANCH   3  15
ATOM     15  N2  <0> d          -0.011   0.966   0.007  0.00  0.00    -0.399 N 
ATOM     16  H7  <0> d           0.004  -0.134  -0.003  0.00  0.00     0.156 HD
ATOM     17  H8  <0> d           0.934   1.529   0.011  0.00  0.00     0.156 HD
ENDBRANCH   3  15
TORSDOF 3
