REMARK  4 active torsions:
REMARK  status: ('A' for Active; 'I' for Inactive)
REMARK    1  A    between atoms: C1_1  and  C2_2 
REMARK    2  A    between atoms: C4_4  and  N2_10 
REMARK    3  A    between atoms: C5_5  and  C8_9 
REMARK    4  A    between atoms: C7_7  and  N1_8 
ROOT
ATOM      1  C2  <0> d           0.002  -0.004   0.002  0.00  0.00    -0.034 A 
ATOM      2  C3  <0> d           0.006  -0.688  -1.198  0.00  0.00    -0.049 A 
ATOM      3  C4  <0> d           0.025  -2.076  -1.205  0.00  0.00     0.032 A 
ATOM      4  C5  <0> d           0.040  -2.777  -0.007  0.00  0.00    -0.034 A 
ATOM      5  C6  <0> d           0.037  -2.093   1.193  0.00  0.00    -0.049 A 
ATOM      6  C7  <0> d           0.023  -0.705   1.201  0.00  0.00     0.032 A 
ATOM      7  H4  <0> d          -0.006  -0.143  -2.130  0.00  0.00     0.087 H 
ATOM      8  H5  <0> d           0.049  -2.638   2.125  0.00  0.00     0.087 H 
ENDROOT
BRANCH   1   9
ATOM      9  C1  <0> d          -0.018   1.503   0.010  0.00  0.00    -0.049 C 
ATOM     10  H1  <0> d           1.004   1.880   0.003  0.00  0.00     0.033 H 
ATOM     11  H2  <0> d          -0.545   1.864  -0.873  0.00  0.00     0.033 H 
ATOM     12  H3  <0> d          -0.529   1.854   0.907  0.00  0.00     0.033 H 
ENDBRANCH   1   9
BRANCH   6  13
ATOM     13  N1  <0> d           0.025  -0.011   2.417  0.00  0.00    -0.399 N 
ATOM     14  H6  <0> d           0.012   0.959   2.422  0.00  0.00     0.156 HD
ATOM     15  H7  <0> d           0.040  -0.501   3.254  0.00  0.00     0.156 HD
ENDBRANCH   6  13
BRANCH   3  16
ATOM     16  N2  <0> d           0.027  -2.770  -2.422  0.00  0.00    -0.399 N 
ATOM     17  H11 <0> d           0.016  -2.280  -3.259  0.00  0.00     0.156 HD
ATOM     18  H12 <0> d           0.041  -3.740  -2.427  0.00  0.00     0.156 HD
ENDBRANCH   3  16
BRANCH   4  19
ATOM     19  C8  <0> d           0.060  -4.284  -0.015  0.00  0.00    -0.049 C 
ATOM     20  H8  <0> d           1.092  -4.634  -0.022  0.00  0.00     0.033 H 
ATOM     21  H9  <0> d          -0.445  -4.659   0.876  0.00  0.00     0.033 H 
ATOM     22  H10 <0> d          -0.454  -4.649  -0.904  0.00  0.00     0.033 H 
ENDBRANCH   4  19
TORSDOF 4
