REMARK  1 active torsions:
REMARK  status: ('A' for Active; 'I' for Inactive)
REMARK       I    between atoms: N1_3  and  C4_6 
REMARK       I    between atoms: C4_6  and  N3_8 
REMARK    1  A    between atoms: N3_8  and  C5_9 
ROOT
ATOM      1  C1  <0> d          -0.695   3.419   0.026  0.00  0.00     0.019 A 
ATOM      2  C2  <0> d          -1.132   2.147   0.018  0.00  0.00     0.007 A 
ATOM      3  N1  <0> d          -0.016   1.344   0.009  0.00  0.00    -0.268 N 
ATOM      4  C3  <0> d           1.068   2.170   0.004  0.00  0.00     0.074 A 
ATOM      5  N2  <0> d           0.647   3.404   0.014  0.00  0.00    -0.254 NA
ATOM      6  C4  <0> d           0.002  -0.004   0.002  0.00  0.00     0.327 C 
ATOM      7  O1  <0> d          -1.042  -0.626   0.008  0.00  0.00    -0.246 OA
ATOM      8  N3  <0> d           1.178  -0.662  -0.012  0.00  0.00    -0.338 N 
ATOM      9  H1  <0> d          -1.317   4.301   0.036  0.00  0.00     0.117 H 
ATOM     10  H2  <0> d          -2.161   1.820   0.021  0.00  0.00     0.114 H 
ATOM     11  H3  <0> d           2.101   1.855  -0.008  0.00  0.00     0.144 H 
ATOM     12  H4  <0> d           2.123  -0.099  -0.018  0.00  0.00     0.164 HD
ENDROOT
BRANCH   8  13
ATOM     13  C5  <0> d           1.198  -2.127  -0.020  0.00  0.00     0.014 A 
ATOM     14  C7  <0> d           2.433  -2.813  -0.607  0.00  0.00    -0.044 A 
ATOM     15  C6  <0> d           2.196  -2.825   0.905  0.00  0.00    -0.044 A 
ATOM     16  H8  <0> d           2.117  -3.605  -1.303  0.00  0.00     0.036 H 
ATOM     17  H9  <0> d           3.043  -2.073  -1.146  0.00  0.00     0.036 H 
ATOM     18  H6  <0> d           2.611  -2.094   1.616  0.00  0.00     0.036 H 
ATOM     19  H7  <0> d           1.685  -3.626   1.459  0.00  0.00     0.036 H 
ATOM     20  H5  <0> d           0.112  -2.166  -0.191  0.00  0.00     0.072 H 
ENDBRANCH   8  13
TORSDOF 1
