REMARK  2 active torsions:
REMARK  status: ('A' for Active; 'I' for Inactive)
REMARK    1  A    between atoms: C1_1  and  C2_2 
REMARK    2  A    between atoms: C6_7  and  C8_11 
ROOT
ATOM      1  C2  <0> d           1.304   2.244   0.002  0.00  0.00     0.001 C 
ATOM      2  H1  <0> d           1.757   2.114  -0.880  0.00  0.00     0.051 H 
ATOM      3  C3  <0> d           2.181   1.681   1.125  0.00  0.00    -0.056 C 
ATOM      4  C4  <0> d           2.302   0.165   0.964  0.00  0.00    -0.064 C 
ATOM      5  C5  <0> d           0.927  -0.485   1.125  0.00  0.00    -0.056 C 
ATOM      6  C6  <0> d           0.002  -0.004   0.002  0.00  0.00     0.001 C 
ATOM      7  H2  <0> d          -0.920  -0.360   0.154  0.00  0.00     0.051 H 
ATOM      8  C7  <0> d          -0.018   1.508   0.010  0.00  0.00     0.134 C 
ATOM      9  O1  <0> d          -1.063   2.114   0.019  0.00  0.00    -0.297 OA
ATOM     10  H6  <0> d           1.728   1.910   2.089  0.00  0.00     0.034 H 
ATOM     11  H7  <0> d           3.172   2.133   1.073  0.00  0.00     0.034 H 
ATOM     12  H8  <0> d           2.979  -0.227   1.724  0.00  0.00     0.033 H 
ATOM     13  H9  <0> d           2.697  -0.063  -0.025  0.00  0.00     0.033 H 
ATOM     14  H10 <0> d           0.503  -0.205   2.090  0.00  0.00     0.034 H 
ATOM     15  H11 <0> d           1.029  -1.569   1.073  0.00  0.00     0.034 H 
ENDROOT
BRANCH   1  16
ATOM     16  C1  <0> d           1.063   3.736   0.236  0.00  0.00    -0.066 C 
ATOM     17  H3  <0> d           0.576   3.879   1.200  0.00  0.00     0.028 H 
ATOM     18  H4  <0> d           2.017   4.264   0.229  0.00  0.00     0.028 H 
ATOM     19  H5  <0> d           0.425   4.130  -0.555  0.00  0.00     0.028 H 
ENDBRANCH   1  16
BRANCH   6  20
ATOM     20  C8  <0> d           0.527  -0.503  -1.345  0.00  0.00    -0.066 C 
ATOM     21  H12 <0> d           1.538  -0.127  -1.504  0.00  0.00     0.028 H 
ATOM     22  H13 <0> d           0.541  -1.593  -1.349  0.00  0.00     0.028 H 
ATOM     23  H14 <0> d          -0.123  -0.146  -2.144  0.00  0.00     0.028 H 
ENDBRANCH   6  20
TORSDOF 2
