REMARK  5 active torsions:
REMARK  status: ('A' for Active; 'I' for Inactive)
REMARK    1  A    between atoms: C2_2  and  N4_10 
REMARK    2  A    between atoms: C3_3  and  N3_9 
REMARK    3  A    between atoms: N1_4  and  C4_6 
REMARK    4  A    between atoms: C4_6  and  C5_7 
REMARK    5  A    between atoms: C5_7  and  O1_8 
ROOT
ATOM      1  C1  <0> d           1.398   1.014   4.133  0.00  0.00     0.051 A 
ATOM      2  C2  <0> d           0.616  -0.146   4.151  0.00  0.00     0.090 A 
ATOM      3  C3  <0> d          -0.259  -0.075   3.107  0.00  0.00     0.145 A 
ATOM      4  N1  <0> d          -0.020   1.094   2.454  0.00  0.00    -0.251 N 
ATOM      5  N2  <0> d           1.019   1.754   3.121  0.00  0.00    -0.181 NA
ATOM      6  H1  <0> d           2.182   1.258   4.835  0.00  0.00     0.121 H 
ENDROOT
BRANCH   4   7
ATOM      7  C4  <0> d          -0.729   1.579   1.267  0.00  0.00     0.038 C 
ATOM      8  H2  <0> d          -1.761   1.198   1.275  0.00  0.00     0.070 H 
ATOM      9  H3  <0> d          -0.744   2.679   1.273  0.00  0.00     0.070 H 
BRANCH   7  10
ATOM     10  C5  <0> d          -0.013   1.086   0.008  0.00  0.00     0.033 C 
ATOM     11  H4  <0> d           1.019   1.466   0.000  0.00  0.00     0.076 H 
ATOM     12  H5  <0> d           0.002  -0.014   0.002  0.00  0.00     0.076 H 
BRANCH  10  13
ATOM     13  O1  <0> d          -0.704   1.559  -1.150  0.00  0.00    -0.399 OA
ATOM     14  H6  <0> d          -0.334   1.304  -2.154  0.00  0.00     0.209 HD
ENDBRANCH  10  13
ENDBRANCH   7  10
ENDBRANCH   4   7
BRANCH   3  15
ATOM     15  N3  <0> d          -1.222  -1.030   2.769  0.00  0.00    -0.382 N 
ATOM     16  H7  <0> d          -1.877  -0.867   1.901  0.00  0.00     0.157 HD
ATOM     17  H8  <0> d          -1.325  -1.944   3.372  0.00  0.00     0.157 HD
ENDBRANCH   3  15
BRANCH   2  18
ATOM     18  N4  <0> d           0.712  -1.201   5.088  0.00  0.00    -0.395 N 
ATOM     19  H9  <0> d           0.043  -2.071   5.007  0.00  0.00     0.156 HD
ATOM     20  H10 <0> d           1.455  -1.152   5.897  0.00  0.00     0.156 HD
ENDBRANCH   2  18
TORSDOF 5
