REMARK  2 active torsions:
REMARK  status: ('A' for Active; 'I' for Inactive)
REMARK    1  A    between atoms: C1_1  and  C2_2 
REMARK    2  A    between atoms: C4_5  and  N3_8 
ROOT
ATOM      1  C2  <0> d           0.002  -0.004   0.002  0.00  0.00    -0.026 A 
ATOM      2  C3  <0> d           0.006  -0.706  -1.193  0.00  0.00     0.028 A 
ATOM      3  N1  <0> d           0.024  -2.028  -1.165  0.00  0.00    -0.075 NA
ATOM      4  C4  <0> d           0.038  -2.681  -0.013  0.00  0.00     0.719 A 
ATOM      5  N2  <0> d           0.035  -2.041   1.147  0.00  0.00    -0.075 NA
ATOM      6  C5  <0> d           0.023  -0.719   1.190  0.00  0.00     0.028 A 
ATOM      7  H4  <0> d          -0.006  -0.179  -2.136  0.00  0.00     0.116 H 
ATOM      8  H5  <0> d           0.025  -0.202   2.138  0.00  0.00     0.116 H 
ENDROOT
BRANCH   1   9
ATOM      9  C1  <0> d          -0.018   1.503   0.010  0.00  0.00    -0.049 C 
ATOM     10  H1  <0> d           1.004   1.880   0.003  0.00  0.00     0.033 H 
ATOM     11  H2  <0> d          -0.545   1.864  -0.873  0.00  0.00     0.033 H 
ATOM     12  H3  <0> d          -0.529   1.854   0.907  0.00  0.00     0.033 H 
ENDBRANCH   1   9
BRANCH   4  13
ATOM     13  N3  <0> d           0.057  -4.065  -0.020  0.00  0.00    -0.231 N 
ATOM     14  H6  <0> d           0.060  -4.545  -0.863  0.00  0.00     0.174 HD
ATOM     15  H7  <0> d           0.068  -4.554   0.817  0.00  0.00     0.174 HD
ENDBRANCH   4  13
TORSDOF 2
