REMARK  0 active torsions:
REMARK  status: ('A' for Active; 'I' for Inactive)
ROOT
ATOM      1  C1  <0> d          -0.017   1.384   0.010  0.00  0.00    -0.059 A 
ATOM      2  C2  <0> d           1.159   2.103   0.002  0.00  0.00    -0.048 A 
ATOM      3  C3  <0> d           2.379   1.439  -0.013  0.00  0.00     0.085 A 
ATOM      4  C4  <0> d           2.398   0.035  -0.021  0.00  0.00     0.001 A 
ATOM      5  C5  <0> d           3.817  -0.339  -0.036  0.00  0.00    -0.049 A 
ATOM      6  C6  <0> d           4.506   0.811  -0.036  0.00  0.00     0.020 A 
ATOM      7  O1  <0> d           3.661   1.857  -0.022  0.00  0.00    -0.322 OA
ATOM      8  C7  <0> d           1.202  -0.682  -0.014  0.00  0.00    -0.049 A 
ATOM      9  C8  <0> d           0.002  -0.004   0.002  0.00  0.00     0.035 A 
ATOM     10 Cl1  <0> d          -1.491  -0.889   0.012  0.00  0.00    -0.084 Cl
ATOM     11  H1  <0> d          -0.962   1.906   0.026  0.00  0.00     0.086 H 
ATOM     12  H2  <0> d           1.132   3.183   0.008  0.00  0.00     0.087 H 
ATOM     13  H3  <0> d           4.225  -1.339  -0.045  0.00  0.00     0.087 H 
ATOM     14  H4  <0> d           5.583   0.886  -0.045  0.00  0.00     0.123 H 
ATOM     15  H5  <0> d           1.216  -1.762  -0.019  0.00  0.00     0.087 H 
ENDROOT
TORSDOF 0
