REMARK  2 active torsions:
REMARK  status: ('A' for Active; 'I' for Inactive)
REMARK    1  A    between atoms: C4_5  and  C5_7 
REMARK    2  A    between atoms: C5_7  and  O2_10 
ROOT
ATOM      1  C1  <0> d          -0.019   1.549   0.011  0.00  0.00    -0.037 C 
ATOM      2  C2  <0> d           1.485   1.897  -0.002  0.00  0.00     0.020 C 
ATOM      3  O1  <0> d           2.189   0.758  -0.512  0.00  0.00    -0.391 OA
ATOM      4  C3  <0> d           1.257  -0.276  -0.865  0.00  0.00     0.026 C 
ATOM      5  C4  <0> d           0.002  -0.004   0.002  0.00  0.00    -0.002 C 
ATOM      6  H1  <0> d           0.127  -0.401   1.010  0.00  0.00     0.048 H 
ATOM      7  H2  <0> d          -0.497   1.925   0.915  0.00  0.00     0.036 H 
ATOM      8  H3  <0> d          -0.514   1.935  -0.880  0.00  0.00     0.036 H 
ATOM      9  H4  <0> d           1.660   2.759  -0.646  0.00  0.00     0.074 H 
ATOM     10  H5  <0> d           1.822   2.117   1.011  0.00  0.00     0.074 H 
ATOM     11  H6  <0> d           1.006  -0.214  -1.924  0.00  0.00     0.075 H 
ATOM     12  H7  <0> d           1.673  -1.256  -0.631  0.00  0.00     0.075 H 
ENDROOT
BRANCH   5  13
ATOM     13  C5  <0> d          -1.257  -0.569  -0.658  0.00  0.00     0.064 A 
ATOM     14  C7  <0> d          -1.388  -2.091  -0.744  0.00  0.00    -0.033 A 
ATOM     15  C6  <0> d          -2.256  -1.304   0.239  0.00  0.00    -0.033 A 
ATOM     16  H10 <0> d          -1.875  -2.505  -1.627  0.00  0.00     0.037 H 
ATOM     17  H11 <0> d          -0.576  -2.690  -0.331  0.00  0.00     0.037 H 
ATOM     18  H8  <0> d          -2.016  -1.384   1.299  0.00  0.00     0.037 H 
ATOM     19  H9  <0> d          -3.315  -1.200   0.003  0.00  0.00     0.037 H 
BRANCH  13  20
ATOM     20  O2  <0> d          -1.784   0.201  -1.740  0.00  0.00    -0.389 OA
ATOM     21  H12 <0> d          -2.580  -0.176  -2.141  0.00  0.00     0.210 HD
ENDBRANCH  13  20
ENDBRANCH   5  13
TORSDOF 2
