REMARK  1 active torsions:
REMARK  status: ('A' for Active; 'I' for Inactive)
REMARK    1  A    between atoms: C6_9  and  N4_10 
ROOT
ATOM      1  C1  <0> d          -0.017   1.365   0.009  0.00  0.00    -0.022 A 
ATOM      2  C2  <0> d           1.190   2.065   0.002  0.00  0.00     0.008 A 
ATOM      3  N1  <0> d           2.335   1.418  -0.013  0.00  0.00    -0.241 NA
ATOM      4  C3  <0> d           2.370   0.078  -0.020  0.00  0.00     0.153 A 
ATOM      5  C4  <0> d           3.418  -0.833  -0.035  0.00  0.00    -0.018 A 
ATOM      6  C5  <0> d           2.867  -2.107  -0.036  0.00  0.00     0.026 A 
ATOM      7  N2  <0> d           1.558  -2.006  -0.023  0.00  0.00    -0.177 NA
ATOM      8  N3  <0> d           1.209  -0.651  -0.013  0.00  0.00    -0.200 N 
ATOM      9  C6  <0> d           0.002  -0.004   0.002  0.00  0.00     0.126 A 
ATOM     10  H1  <0> d          -0.956   1.897   0.026  0.00  0.00     0.091 H 
ATOM     11  H2  <0> d           1.183   3.145   0.007  0.00  0.00     0.115 H 
ATOM     12  H3  <0> d           4.471  -0.593  -0.043  0.00  0.00     0.091 H 
ATOM     13  H4  <0> d           3.425  -3.031  -0.046  0.00  0.00     0.117 H 
ENDROOT
BRANCH   9  14
ATOM     14  N4  <0> d          -1.176  -0.720   0.010  0.00  0.00    -0.384 N 
ATOM     15  H5  <0> d          -2.026  -0.255   0.021  0.00  0.00     0.157 HD
ATOM     16  H6  <0> d          -1.154  -1.690   0.004  0.00  0.00     0.157 HD
ENDBRANCH   9  14
TORSDOF 1
