REMARK  3 active torsions:
REMARK  status: ('A' for Active; 'I' for Inactive)
REMARK    1  A    between atoms: C1_1  and  C2_2 
REMARK    2  A    between atoms: C7_8  and  C9_11 
REMARK    3  A    between atoms: C7_8  and  C10_12 
ROOT
ATOM      1  C2  <0> d           0.100  -0.054   0.013  0.00  0.00     0.018 C 
ATOM      2  C3  <0> d           0.861  -0.762  -1.149  0.00  0.00    -0.051 C 
ATOM      3  C4  <0> d           1.108  -2.199  -0.635  0.00  0.00    -0.059 C 
ATOM      4  C5  <0> d           0.463  -2.220   0.786  0.00  0.00    -0.040 C 
ATOM      5  H1  <0> d           0.795  -3.017   1.451  0.00  0.00     0.041 H 
ATOM      6  C6  <0> d           0.755  -0.750   1.257  0.00  0.00    -0.047 C 
ATOM      7  C7  <0> d          -1.071  -2.146   0.514  0.00  0.00     0.018 C 
ATOM      8  C8  <0> d          -1.297  -0.689   0.028  0.00  0.00     0.143 C 
ATOM      9  O1  <0> d          -2.340  -0.172  -0.293  0.00  0.00    -0.296 OA
ATOM     10  H5  <0> d           0.247  -0.781  -2.050  0.00  0.00     0.034 H 
ATOM     11  H6  <0> d           1.809  -0.260  -1.345  0.00  0.00     0.034 H 
ATOM     12  H7  <0> d           0.620  -2.925  -1.285  0.00  0.00     0.033 H 
ATOM     13  H8  <0> d           2.177  -2.402  -0.571  0.00  0.00     0.033 H 
ATOM     14  H9  <0> d           1.824  -0.547   1.326  0.00  0.00     0.035 H 
ATOM     15  H10 <0> d           0.236  -0.506   2.184  0.00  0.00     0.035 H 
ENDROOT
BRANCH   7  16
ATOM     16  C9  <0> d          -1.472  -3.169  -0.550  0.00  0.00    -0.062 C 
ATOM     17  H11 <0> d          -1.093  -4.152  -0.272  0.00  0.00     0.029 H 
ATOM     18  H12 <0> d          -2.559  -3.207  -0.626  0.00  0.00     0.029 H 
ATOM     19  H13 <0> d          -1.051  -2.877  -1.512  0.00  0.00     0.029 H 
ENDBRANCH   7  16
BRANCH   7  20
ATOM     20  C10 <0> d          -1.852  -2.387   1.807  0.00  0.00    -0.062 C 
ATOM     21  H14 <0> d          -1.585  -1.627   2.541  0.00  0.00     0.029 H 
ATOM     22  H15 <0> d          -2.921  -2.333   1.601  0.00  0.00     0.029 H 
ATOM     23  H16 <0> d          -1.608  -3.374   2.201  0.00  0.00     0.029 H 
ENDBRANCH   7  20
BRANCH   1  24
ATOM     24  C1  <0> d           0.137   1.476  -0.001  0.00  0.00    -0.062 C 
ATOM     25  H2  <0> d           1.173   1.814   0.024  0.00  0.00     0.029 H 
ATOM     26  H3  <0> d          -0.344   1.843  -0.907  0.00  0.00     0.029 H 
ATOM     27  H4  <0> d          -0.391   1.860   0.872  0.00  0.00     0.029 H 
ENDBRANCH   1  24
TORSDOF 3
