REMARK  4 active torsions:
REMARK  status: ('A' for Active; 'I' for Inactive)
REMARK    1  A    between atoms: C4_5  and  C6_7 
REMARK    2  A    between atoms: C6_7  and  C7_9 
REMARK    3  A    between atoms: C6_7  and  O2_11 
REMARK    4  A    between atoms: C7_9  and  O1_10 
ROOT
ATOM      1  C1  <0> d          -2.022   1.489  -3.181  0.00  0.00    -0.080 A 
ATOM      2  C2  <0> d          -2.054   2.857  -3.406  0.00  0.00    -0.066 A 
ATOM      3  C3  <0> d          -1.423   3.701  -2.512  0.00  0.00     0.003 A 
ATOM      4  N1  <0> d          -0.796   3.219  -1.456  0.00  0.00    -0.263 NA
ATOM      5  C4  <0> d          -0.746   1.924  -1.211  0.00  0.00     0.065 A 
ATOM      6  C5  <0> d          -1.349   1.019  -2.064  0.00  0.00    -0.057 A 
ATOM      7  H2  <0> d          -2.507   0.806  -3.863  0.00  0.00     0.083 H 
ATOM      8  H3  <0> d          -2.566   3.258  -4.268  0.00  0.00     0.085 H 
ATOM      9  H4  <0> d          -1.443   4.768  -2.679  0.00  0.00     0.114 H 
ATOM     10  H5  <0> d          -1.301  -0.041  -1.861  0.00  0.00     0.086 H 
ENDROOT
BRANCH   5  11
ATOM     11  C6  <0> d          -0.017   1.425   0.010  0.00  0.00     0.097 C 
ATOM     12  H1  <0> d          -0.527   1.776   0.907  0.00  0.00     0.096 H 
BRANCH  11  13
ATOM     13  C7  <0> d           1.418   1.954  -0.001  0.00  0.00     0.046 C 
ATOM     14  H6  <0> d           1.955   1.532  -0.850  0.00  0.00     0.078 H 
ATOM     15  H7  <0> d           1.404   3.041  -0.085  0.00  0.00     0.078 H 
BRANCH  13  16
ATOM     16  O1  <0> d           2.074   1.579   1.212  0.00  0.00    -0.398 OA
ATOM     17  H8  <0> d           2.990   1.881   1.274  0.00  0.00     0.209 HD
ENDBRANCH  13  16
ENDBRANCH  11  13
BRANCH  11  18
ATOM     18  O2  <0> d           0.002  -0.004   0.002  0.00  0.00    -0.387 OA
ATOM     19  H9  <0> d           0.442  -0.387  -0.769  0.00  0.00     0.210 HD
ENDBRANCH  11  18
ENDBRANCH   5  11
TORSDOF 4
