REMARK  1 active torsions:
REMARK  status: ('A' for Active; 'I' for Inactive)
REMARK    1  A    between atoms: C3_3  and  N1_6 
ROOT
ATOM      1  N1  <0> d           2.442   3.266  -0.004  0.00  0.00    -0.278 NA
ATOM      2  C5  <0> d           3.248   3.413  -1.242  0.00  0.00    -0.016 C 
ATOM      3  C6  <0> d           3.502   4.939  -1.321  0.00  0.00    -0.053 C 
ATOM      4  C7  <0> d           2.170   5.538  -0.816  0.00  0.00    -0.053 C 
ATOM      5  C8  <0> d           1.513   4.417   0.011  0.00  0.00    -0.016 C 
ATOM      6  H4  <0> d           4.190   2.870  -1.155  0.00  0.00     0.056 H 
ATOM      7  H5  <0> d           2.686   3.071  -2.111  0.00  0.00     0.056 H 
ATOM      8  H6  <0> d           3.698   5.245  -2.349  0.00  0.00     0.034 H 
ATOM      9  H7  <0> d           4.327   5.227  -0.669  0.00  0.00     0.034 H 
ATOM     10  H8  <0> d           1.533   5.809  -1.659  0.00  0.00     0.034 H 
ATOM     11  H9  <0> d           2.360   6.409  -0.189  0.00  0.00     0.034 H 
ATOM     12  H10 <0> d           0.562   4.133  -0.438  0.00  0.00     0.056 H 
ATOM     13  H11 <0> d           1.354   4.752   1.036  0.00  0.00     0.056 H 
ENDROOT
BRANCH   1  14
ATOM     14  C3  <0> d           1.741   2.058  -0.004  0.00  0.00     0.052 A 
ATOM     15  C2  <0> d           2.226   0.785  -0.015  0.00  0.00    -0.055 A 
ATOM     16  C1  <0> d           1.330  -0.269  -0.012  0.00  0.00    -0.074 A 
ATOM     17  H2  <0> d           3.291   0.602  -0.026  0.00  0.00     0.087 H 
ATOM     18  C4  <0> d           0.002  -0.004   0.002  0.00  0.00    -0.043 A 
ATOM     19  H1  <0> d           1.684  -1.289  -0.021  0.00  0.00     0.084 H 
ATOM     20  S1  <0> d          -0.022   1.781   0.012  0.00  0.00    -0.090 SA
ATOM     21  H3  <0> d          -0.828  -0.695   0.006  0.00  0.00     0.095 H 
ENDBRANCH   1  14
TORSDOF 1
