REMARK  2 active torsions:
REMARK  status: ('A' for Active; 'I' for Inactive)
REMARK    1  A    between atoms: C9_9  and  C10_11 
REMARK    2  A    between atoms: C10_11  and  O1_12 
ROOT
ATOM      1  C1  <0> d          -0.013   1.076   0.008  0.00  0.00    -0.082 A 
ATOM      2  C2  <0> d          -1.234   1.747   0.017  0.00  0.00    -0.081 A 
ATOM      3  C3  <0> d          -1.288   3.106   0.031  0.00  0.00    -0.054 A 
ATOM      4  C4  <0> d          -0.096   3.852   0.024  0.00  0.00     0.067 A 
ATOM      5  C5  <0> d           1.145   3.168   0.008  0.00  0.00    -0.007 A 
ATOM      6  C6  <0> d           1.162   1.764   0.000  0.00  0.00    -0.071 A 
ATOM      7  C7  <0> d           2.336   3.916   0.001  0.00  0.00    -0.069 A 
ATOM      8  C8  <0> d           2.242   5.279   0.011  0.00  0.00    -0.056 A 
ATOM      9  C9  <0> d           0.990   5.889   0.026  0.00  0.00     0.058 A 
ATOM     10  N1  <0> d          -0.119   5.189   0.032  0.00  0.00    -0.251 NA
ATOM     11  H1  <0> d           0.002  -0.004   0.002  0.00  0.00     0.083 H 
ATOM     12  H2  <0> d          -2.152   1.179   0.019  0.00  0.00     0.083 H 
ATOM     13  H3  <0> d          -2.243   3.611   0.042  0.00  0.00     0.087 H 
ATOM     14  H4  <0> d           2.103   1.232  -0.011  0.00  0.00     0.084 H 
ATOM     15  H5  <0> d           3.299   3.426  -0.010  0.00  0.00     0.085 H 
ATOM     16  H6  <0> d           3.137   5.883   0.007  0.00  0.00     0.086 H 
ENDROOT
BRANCH   9  17
ATOM     17  C10 <0> d           0.907   7.393   0.036  0.00  0.00     0.056 C 
ATOM     18  H7  <0> d           0.366   7.733  -0.847  0.00  0.00     0.083 H 
ATOM     19  H8  <0> d           0.382   7.723   0.933  0.00  0.00     0.083 H 
BRANCH  17  20
ATOM     20  O1  <0> d           2.226   7.943   0.027  0.00  0.00    -0.395 OA
ATOM     21  H9  <0> d           2.249   8.910   0.033  0.00  0.00     0.209 HD
ENDBRANCH  17  20
ENDBRANCH   9  17
TORSDOF 2
