REMARK  4 active torsions:
REMARK  status: ('A' for Active; 'I' for Inactive)
REMARK    1  A    between atoms: C1_1  and  C2_2 
REMARK    2  A    between atoms: C2_2  and  C3_3 
REMARK    3  A    between atoms: C3_3  and  C4_5 
REMARK    4  A    between atoms: C4_5  and  C5_6 
ROOT
ATOM      1  C4  <0> d          -0.070   5.347   0.031  0.00  0.00     0.014 C 
ATOM      2  H6  <0> d          -0.887   5.667   0.512  0.00  0.00     0.051 H 
ATOM      3  H7  <0> d           0.819   5.720   0.538  0.00  0.00     0.051 H 
ENDROOT
BRANCH   1   4
ATOM      4  C3  <0> d          -0.091   5.857  -1.387  0.00  0.00     0.130 C 
ATOM      5  O1  <0> d          -0.089   5.077  -2.309  0.00  0.00    -0.298 OA
BRANCH   4   6
ATOM      6  C2  <0> d          -0.114   7.340  -1.654  0.00  0.00    -0.013 C 
ATOM      7  H4  <0> d          -0.932   7.741  -1.242  0.00  0.00     0.043 H 
ATOM      8  H5  <0> d           0.774   7.801  -1.221  0.00  0.00     0.043 H 
BRANCH   6   9
ATOM      9  C1  <0> d          -0.131   7.586  -3.164  0.00  0.00    -0.070 C 
ATOM     10  H1  <0> d           0.760   7.149  -3.614  0.00  0.00     0.028 H 
ATOM     11  H2  <0> d          -1.019   7.125  -3.597  0.00  0.00     0.028 H 
ATOM     12  H3  <0> d          -0.148   8.659  -3.357  0.00  0.00     0.028 H 
ENDBRANCH   6   9
ENDBRANCH   4   6
ENDBRANCH   1   4
BRANCH   1  13
ATOM     13  C5  <0> d          -0.050   3.840   0.023  0.00  0.00    -0.051 A 
ATOM     14  C10 <0> d          -1.238   3.133   0.030  0.00  0.00    -0.076 A 
ATOM     15  C9  <0> d          -1.219   1.751   0.017  0.00  0.00    -0.082 A 
ATOM     16  H12 <0> d          -2.180   3.660   0.041  0.00  0.00     0.084 H 
ATOM     17  C8  <0> d          -0.013   1.076   0.008  0.00  0.00    -0.083 A 
ATOM     18  H11 <0> d          -2.147   1.198   0.019  0.00  0.00     0.083 H 
ATOM     19  C7  <0> d           1.175   1.783   0.000  0.00  0.00    -0.082 A 
ATOM     20  H10 <0> d           0.002  -0.004   0.002  0.00  0.00     0.083 H 
ATOM     21  C6  <0> d           1.156   3.165   0.008  0.00  0.00    -0.076 A 
ATOM     22  H9  <0> d           2.118   1.256  -0.011  0.00  0.00     0.083 H 
ATOM     23  H8  <0> d           2.084   3.718   0.002  0.00  0.00     0.084 H 
ENDBRANCH   1  13
TORSDOF 4
