REMARK  2 active torsions:
REMARK  status: ('A' for Active; 'I' for Inactive)
REMARK    1  A    between atoms: C1_1  and  N1_2 
REMARK    2  A    between atoms: N1_2  and  C2_3 
ROOT
ATOM      1  C2  <0> d          -0.017   1.417   0.010  0.00  0.00     0.112 A 
ATOM      2  C3  <0> d           1.157   2.089   0.002  0.00  0.00     0.013 A 
ATOM      3  N2  <0> d           2.339   1.389  -0.012  0.00  0.00    -0.316 N 
ATOM      4  H1  <0> d           3.208   1.884  -0.017  0.00  0.00     0.170 HD
ATOM      5  C4  <0> d           2.339   0.044  -0.020  0.00  0.00     0.327 A 
ATOM      6  O1  <0> d           3.397  -0.555  -0.033  0.00  0.00    -0.247 OA
ATOM      7  N3  <0> d           1.186  -0.650  -0.013  0.00  0.00    -0.274 N 
ATOM      8  H2  <0> d           1.207  -1.649  -0.018  0.00  0.00     0.173 HD
ATOM      9  C5  <0> d           0.002  -0.004   0.002  0.00  0.00     0.277 A 
ATOM     10  O2  <0> d          -1.041  -0.633   0.008  0.00  0.00    -0.266 OA
ATOM     11  H7  <0> d           1.165   3.169   0.008  0.00  0.00     0.115 H 
ENDROOT
BRANCH   1  12
ATOM     12  N1  <0> d          -1.239   2.114   0.019  0.00  0.00    -0.389 N 
ATOM     13  H6  <0> d          -2.077   1.625   0.021  0.00  0.00     0.159 HD
BRANCH  12  14
ATOM     14  C1  <0> d          -1.246   3.579   0.027  0.00  0.00    -0.021 C 
ATOM     15  H3  <0> d          -0.730   3.940   0.917  0.00  0.00     0.056 H 
ATOM     16  H4  <0> d          -0.739   3.950  -0.863  0.00  0.00     0.056 H 
ATOM     17  H5  <0> d          -2.276   3.937   0.034  0.00  0.00     0.056 H 
ENDBRANCH  12  14
ENDBRANCH   1  12
TORSDOF 2
