REMARK  2 active torsions:
REMARK  status: ('A' for Active; 'I' for Inactive)
REMARK    1  A    between atoms: C1_1  and  N1_2 
REMARK    2  A    between atoms: N1_2  and  C2_3 
ROOT
ATOM      1  C2  <0> d          -0.017   1.384   0.010  0.00  0.00     0.066 A 
ATOM      2  C3  <0> d           0.002  -0.004   0.002  0.00  0.00    -0.052 A 
ATOM      3  C4  <0> d           1.208  -0.678  -0.013  0.00  0.00    -0.043 A 
ATOM      4  C5  <0> d           2.398   0.029  -0.021  0.00  0.00     0.119 A 
ATOM      5  C6  <0> d           2.384   1.414  -0.014  0.00  0.00    -0.006 A 
ATOM      6  C7  <0> d           1.179   2.093   0.002  0.00  0.00     0.145 A 
ATOM      7  F1  <0> d           1.165   3.444   0.009  0.00  0.00    -0.204 F 
ATOM      8  F2  <0> d           3.576  -0.633  -0.036  0.00  0.00    -0.206 F 
ATOM      9  H5  <0> d          -0.926  -0.557   0.007  0.00  0.00     0.087 H 
ATOM     10  H6  <0> d           1.222  -1.758  -0.019  0.00  0.00     0.088 H 
ATOM     11  H7  <0> d           3.313   1.964  -0.020  0.00  0.00     0.093 H 
ENDROOT
BRANCH   1  12
ATOM     12  N1  <0> d          -1.238   2.068   0.019  0.00  0.00    -0.392 N 
ATOM     13  H4  <0> d          -1.250   3.038   0.025  0.00  0.00     0.159 HD
BRANCH  12  14
ATOM     14  C1  <0> d          -2.497   1.320   0.021  0.00  0.00    -0.021 C 
ATOM     15  H1  <0> d          -2.551   0.697  -0.872  0.00  0.00     0.056 H 
ATOM     16  H2  <0> d          -2.543   0.688   0.908  0.00  0.00     0.056 H 
ATOM     17  H3  <0> d          -3.334   2.018   0.029  0.00  0.00     0.056 H 
ENDBRANCH  12  14
ENDBRANCH   1  12
TORSDOF 2
