REMARK  5 active torsions:
REMARK  status: ('A' for Active; 'I' for Inactive)
REMARK    1  A    between atoms: C4_4  and  C7_7 
REMARK    2  A    between atoms: C7_7  and  C8_9 
REMARK    3  A    between atoms: C7_7  and  O2_12 
REMARK    4  A    between atoms: C8_9  and  C9_10 
REMARK    5  A    between atoms: C9_10  and  O1_11 
ROOT
ATOM      1  C7  <0> d          -0.729   1.579   1.267  0.00  0.00     0.062 C 
ATOM      2  H1  <0> d          -1.776   1.277   1.232  0.00  0.00     0.090 H 
ENDROOT
BRANCH   1   3
ATOM      3  C4  <0> d          -0.074   0.981   2.485  0.00  0.00    -0.030 A 
ATOM      4  C3  <0> d          -0.584  -0.175   3.047  0.00  0.00    -0.074 A 
ATOM      5  C2  <0> d           0.017  -0.724   4.164  0.00  0.00    -0.082 A 
ATOM      6  H4  <0> d          -1.453  -0.648   2.613  0.00  0.00     0.084 H 
ATOM      7  C1  <0> d           1.128  -0.118   4.719  0.00  0.00    -0.083 A 
ATOM      8  H3  <0> d          -0.383  -1.626   4.603  0.00  0.00     0.083 H 
ATOM      9  C6  <0> d           1.639   1.036   4.157  0.00  0.00    -0.082 A 
ATOM     10  H2  <0> d           1.597  -0.547   5.592  0.00  0.00     0.083 H 
ATOM     11  C5  <0> d           1.041   1.583   3.037  0.00  0.00    -0.074 A 
ATOM     12  H6  <0> d           2.508   1.510   4.590  0.00  0.00     0.083 H 
ATOM     13  H5  <0> d           1.443   2.483   2.595  0.00  0.00     0.084 H 
ENDBRANCH   1   3
BRANCH   1  14
ATOM     14  C8  <0> d          -0.013   1.086   0.008  0.00  0.00    -0.018 C 
ATOM     15  H7  <0> d           0.002  -0.004   0.002  0.00  0.00     0.040 H 
ATOM     16  H8  <0> d           1.010   1.463   0.000  0.00  0.00     0.040 H 
BRANCH  14  17
ATOM     17  C9  <0> d          -0.753   1.593  -1.232  0.00  0.00     0.019 C 
ATOM     18  H9  <0> d          -1.775   1.215  -1.224  0.00  0.00     0.074 H 
ATOM     19  H10 <0> d          -0.767   2.683  -1.226  0.00  0.00     0.074 H 
BRANCH  17  20
ATOM     20  O1  <0> d          -0.084   1.132  -2.407  0.00  0.00    -0.401 OA
ATOM     21  H11 <0> d          -0.499   1.416  -3.233  0.00  0.00     0.209 HD
ENDBRANCH  17  20
ENDBRANCH  14  17
ENDBRANCH   1  14
BRANCH   1  22
ATOM     22  O2  <0> d          -0.647   3.004   1.334  0.00  0.00    -0.391 OA
ATOM     23  H12 <0> d           0.258   3.345   1.368  0.00  0.00     0.210 HD
ENDBRANCH   1  22
TORSDOF 5
