REMARK  3 active torsions:
REMARK  status: ('A' for Active; 'I' for Inactive)
REMARK    1  A    between atoms: C1_1  and  C2_2 
REMARK    2  A    between atoms: C2_2  and  C3_4 
REMARK    3  A    between atoms: C6_7  and  N1_11 
ROOT
ATOM      1  C3  <0> d          -1.229   3.140   0.032  0.00  0.00     0.012 A 
ATOM      2  C4  <0> d          -1.206   1.740   0.030  0.00  0.00    -0.067 A 
ATOM      3  C5  <0> d          -0.013   1.075   0.022  0.00  0.00    -0.054 A 
ATOM      4  C6  <0> d           1.185   1.785   0.006  0.00  0.00     0.064 A 
ATOM      5  C7  <0> d           1.173   3.180   0.002  0.00  0.00     0.143 A 
ATOM      6  C8  <0> d          -0.025   3.857   0.015  0.00  0.00    -0.030 A 
ATOM      7  F1  <0> d           2.337   3.866  -0.015  0.00  0.00    -0.204 F 
ATOM      8  H4  <0> d          -2.132   1.184   0.038  0.00  0.00     0.085 H 
ATOM      9  H5  <0> d           0.002  -0.004   0.025  0.00  0.00     0.087 H 
ATOM     10  H6  <0> d          -0.038   4.937   0.011  0.00  0.00     0.089 H 
ENDROOT
BRANCH   1  11
ATOM     11  C2  <0> d          -2.511   3.854   0.045  0.00  0.00     0.155 C 
ATOM     12  O1  <0> d          -3.551   3.236  -0.041  0.00  0.00    -0.293 OA
BRANCH  11  13
ATOM     13  C1  <0> d          -2.536   5.356   0.166  0.00  0.00    -0.017 C 
ATOM     14  H1  <0> d          -1.505   5.736   0.232  0.00  0.00     0.038 H 
ATOM     15  H2  <0> d          -3.091   5.642   1.071  0.00  0.00     0.038 H 
ATOM     16  H3  <0> d          -3.029   5.787  -0.718  0.00  0.00     0.038 H 
ENDBRANCH  11  13
ENDBRANCH   1  11
BRANCH   4  17
ATOM     17  N1  <0> d           2.396   1.102  -0.007  0.00  0.00    -0.397 N 
ATOM     18  H7  <0> d           3.343   1.661  -0.020  0.00  0.00     0.156 HD
ATOM     19  H8  <0> d           2.406   0.002  -0.004  0.00  0.00     0.156 HD
ENDBRANCH   4  17
TORSDOF 3
