REMARK  4 active torsions:
REMARK  status: ('A' for Active; 'I' for Inactive)
REMARK    1  A    between atoms: C1_1  and  N1_2 
REMARK    2  A    between atoms: C4_5  and  N3_9 
REMARK    3  A    between atoms: N3_9  and  C6_10 
REMARK    4  A    between atoms: N3_9  and  C7_11 
ROOT
ATOM      1  N1  <0> d          -0.018   1.461   0.014  0.00  0.00    -0.312 N 
ATOM      2  C2  <0> d           1.155   2.155  -0.003  0.00  0.00    -0.013 A 
ATOM      3  C3  <0> d           1.123   3.508   0.003  0.00  0.00    -0.024 A 
ATOM      4  C4  <0> d          -0.126   4.162   0.027  0.00  0.00     0.131 A 
ATOM      5  N2  <0> d          -1.241   3.445   0.043  0.00  0.00    -0.176 NA
ATOM      6  C5  <0> d          -1.194   2.114   0.031  0.00  0.00     0.349 A 
ATOM      7  O1  <0> d          -2.235   1.477   0.041  0.00  0.00    -0.244 OA
ATOM      8  H4  <0> d           2.099   1.630  -0.021  0.00  0.00     0.111 H 
ATOM      9  H5  <0> d           2.041   4.078  -0.010  0.00  0.00     0.091 H 
ENDROOT
BRANCH   4  10
ATOM     10  N3  <0> d          -0.186   5.537   0.033  0.00  0.00    -0.374 N 
BRANCH  10  11
ATOM     11  C6  <0> d          -1.482   6.213  -0.063  0.00  0.00    -0.018 C 
ATOM     12  H6  <0> d          -1.884   6.372   0.937  0.00  0.00     0.056 H 
ATOM     13  H7  <0> d          -1.355   7.174  -0.561  0.00  0.00     0.056 H 
ATOM     14  H8  <0> d          -2.173   5.595  -0.638  0.00  0.00     0.056 H 
ENDBRANCH  10  11
BRANCH  10  15
ATOM     15  C7  <0> d           1.045   6.324   0.136  0.00  0.00    -0.018 C 
ATOM     16  H9  <0> d           1.906   5.657   0.108  0.00  0.00     0.056 H 
ATOM     17  H10 <0> d           1.099   7.024  -0.698  0.00  0.00     0.056 H 
ATOM     18  H11 <0> d           1.045   6.877   1.075  0.00  0.00     0.056 H 
ENDBRANCH  10  15
ENDBRANCH   4  10
BRANCH   1  19
ATOM     19  C1  <0> d           0.002  -0.004   0.008  0.00  0.00    -0.010 C 
ATOM     20  H1  <0> d           0.024  -0.372   1.034  0.00  0.00     0.057 H 
ATOM     21  H2  <0> d          -0.892  -0.377  -0.493  0.00  0.00     0.057 H 
ATOM     22  H3  <0> d           0.888  -0.353  -0.523  0.00  0.00     0.057 H 
ENDBRANCH   1  19
TORSDOF 4
