REMARK  1 active torsions:
REMARK  status: ('A' for Active; 'I' for Inactive)
REMARK    1  A    between atoms: C3_3  and  C5_6 
ROOT
ATOM      1  C5  <0> d          -1.883   2.299  -0.612  0.00  0.00     0.163 C 
ATOM      2  O1  <0> d          -0.748   1.582  -1.125  0.00  0.00    -0.354 OA
ATOM      3  C6  <0> d          -0.013   1.086   0.008  0.00  0.00     0.043 C 
ATOM      4  C7  <0> d          -0.778   1.605   1.245  0.00  0.00     0.043 C 
ATOM      5  O2  <0> d          -1.517   2.735   0.715  0.00  0.00    -0.354 OA
ATOM      6  H4  <0> d          -2.752   1.643  -0.565  0.00  0.00     0.138 H 
ATOM      7  H5  <0> d           0.002  -0.004   0.002  0.00  0.00     0.077 H 
ATOM      8  H6  <0> d           1.004   1.478   0.000  0.00  0.00     0.077 H 
ATOM      9  H7  <0> d          -1.459   0.843   1.625  0.00  0.00     0.077 H 
ATOM     10  H8  <0> d          -0.084   1.926   2.022  0.00  0.00     0.077 H 
ENDROOT
BRANCH   1  11
ATOM     11  C3  <0> d          -2.181   3.490  -1.486  0.00  0.00     0.037 A 
ATOM     12  C2  <0> d          -3.159   4.420  -1.356  0.00  0.00    -0.065 A 
ATOM     13  C1  <0> d          -3.244   5.438  -2.288  0.00  0.00    -0.075 A 
ATOM     14  H2  <0> d          -3.862   4.366  -0.538  0.00  0.00     0.085 H 
ATOM     15  C4  <0> d          -2.346   5.477  -3.302  0.00  0.00    -0.044 A 
ATOM     16  H1  <0> d          -4.014   6.191  -2.208  0.00  0.00     0.084 H 
ATOM     17  S1  <0> d          -1.334   4.048  -2.955  0.00  0.00    -0.102 SA
ATOM     18  H3  <0> d          -2.262   6.189  -4.110  0.00  0.00     0.095 H 
ENDBRANCH   1  11
TORSDOF 1
