REMARK  4 active torsions:
REMARK  status: ('A' for Active; 'I' for Inactive)
REMARK    1  A    between atoms: C1_1  and  C2_2 
REMARK    2  A    between atoms: C2_2  and  N1_3 
REMARK    3  A    between atoms: C6_7  and  C7_8 
REMARK    4  A    between atoms: C7_8  and  O1_9 
ROOT
ATOM      1  N1  <0> d          -0.705   3.161   0.024  0.00  0.00    -0.359 N 
ATOM      2  C3  <0> d          -1.110   1.859   0.017  0.00  0.00    -0.020 A 
ATOM      3  C4  <0> d          -0.013   1.076   0.008  0.00  0.00    -0.066 A 
ATOM      4  C5  <0> d           1.112   1.925   0.002  0.00  0.00    -0.058 A 
ATOM      5  C6  <0> d           0.658   3.195   0.012  0.00  0.00     0.035 A 
ATOM      6  H6  <0> d          -2.134   1.515   0.019  0.00  0.00     0.111 H 
ATOM      7  H7  <0> d           0.002  -0.004   0.002  0.00  0.00     0.085 H 
ATOM      8  H8  <0> d           2.146   1.616  -0.009  0.00  0.00     0.086 H 
ENDROOT
BRANCH   1   9
ATOM      9  C2  <0> d          -1.588   4.330   0.038  0.00  0.00    -0.004 C 
ATOM     10  H4  <0> d          -2.546   4.056   0.480  0.00  0.00     0.064 H 
ATOM     11  H5  <0> d          -1.130   5.124   0.627  0.00  0.00     0.064 H 
BRANCH   9  12
ATOM     12  C1  <0> d          -1.808   4.819  -1.395  0.00  0.00    -0.061 C 
ATOM     13  H1  <0> d          -0.850   5.093  -1.836  0.00  0.00     0.029 H 
ATOM     14  H2  <0> d          -2.266   4.025  -1.984  0.00  0.00     0.029 H 
ATOM     15  H3  <0> d          -2.465   5.689  -1.384  0.00  0.00     0.029 H 
ENDBRANCH   9  12
ENDBRANCH   1   9
BRANCH   5  16
ATOM     16  C7  <0> d           1.511   4.438   0.011  0.00  0.00     0.054 C 
ATOM     17  H9  <0> d           1.284   5.033  -0.874  0.00  0.00     0.083 H 
ATOM     18  H10 <0> d           1.301   5.023   0.906  0.00  0.00     0.083 H 
BRANCH  16  19
ATOM     19  O1  <0> d           2.891   4.068  -0.004  0.00  0.00    -0.395 OA
ATOM     20  H11 <0> d           3.499   4.820  -0.005  0.00  0.00     0.209 HD
ENDBRANCH  16  19
ENDBRANCH   5  16
TORSDOF 4
