REMARK  2 active torsions:
REMARK  status: ('A' for Active; 'I' for Inactive)
REMARK    1  A    between atoms: C1_1  and  C2_2 
REMARK    2  A    between atoms: C4_7  and  N3_11 
ROOT
ATOM      1  C2  <0> d           0.002  -0.004   0.002  0.00  0.00     0.047 A 
ATOM      2  C3  <0> d           0.006  -0.708  -1.198  0.00  0.00     0.203 A 
ATOM      3  O1  <0> d          -0.008  -0.053  -2.368  0.00  0.00    -0.171 OA
ATOM      4  N1  <0> d           0.025  -2.055  -1.172  0.00  0.00    -0.167 N 
ATOM      5  H1  <0> d           0.028  -2.551  -2.005  0.00  0.00     0.186 HD
ATOM      6  C4  <0> d           0.040  -2.712  -0.013  0.00  0.00     0.680 A 
ATOM      7  N2  <0> d           0.036  -2.067   1.153  0.00  0.00    -0.167 N 
ATOM      8  C5  <0> d           0.023  -0.720   1.194  0.00  0.00     0.203 A 
ATOM      9  O2  <0> d           0.025  -0.078   2.371  0.00  0.00    -0.171 OA
ATOM     10  H7  <0> d           0.047  -2.573   1.981  0.00  0.00     0.186 HD
ENDROOT
BRANCH   1  11
ATOM     11  C1  <0> d          -0.018   1.503   0.010  0.00  0.00    -0.043 C 
ATOM     12  H2  <0> d           1.004   1.880   0.003  0.00  0.00     0.034 H 
ATOM     13  H3  <0> d          -0.545   1.864  -0.873  0.00  0.00     0.034 H 
ATOM     14  H4  <0> d          -0.529   1.854   0.907  0.00  0.00     0.034 H 
ENDBRANCH   1  11
BRANCH   6  15
ATOM     15  N3  <0> d           0.058  -4.080  -0.020  0.00  0.00    -0.234 N 
ATOM     16  H5  <0> d           0.061  -4.560  -0.863  0.00  0.00     0.174 HD
ATOM     17  H6  <0> d           0.069  -4.569   0.817  0.00  0.00     0.174 HD
ENDBRANCH   6  15
TORSDOF 2
