REMARK  5 active torsions:
REMARK  status: ('A' for Active; 'I' for Inactive)
REMARK    1  A    between atoms: C1_1  and  C2_2 
REMARK    2  A    between atoms: C2_2  and  C3_3 
REMARK    3  A    between atoms: C2_2  and  C4_4 
REMARK    4  A    between atoms: C4_4  and  C5_6 
REMARK    5  A    between atoms: C4_4  and  O1_13 
ROOT
ATOM      1  C5  <0> d           1.850   1.246  -1.453  0.00  0.00    -0.013 C 
ATOM      2  H2  <0> d           2.811   1.738  -1.597  0.00  0.00     0.050 H 
ATOM      3  C6  <0> d           0.867   1.730  -2.521  0.00  0.00    -0.056 C 
ATOM      4  C7  <0> d           1.295   1.149  -3.874  0.00  0.00    -0.061 C 
ATOM      5  C8  <0> d           1.091  -0.367  -3.836  0.00  0.00    -0.050 C 
ATOM      6  C9  <0> d           1.708  -0.941  -2.594  0.00  0.00    -0.106 C 
ATOM      7  C10 <0> d           2.031  -0.241  -1.557  0.00  0.00    -0.100 C 
ATOM      8  H10 <0> d          -0.139   1.387  -2.276  0.00  0.00     0.034 H 
ATOM      9  H11 <0> d           0.881   2.819  -2.565  0.00  0.00     0.034 H 
ATOM     10  H12 <0> d           0.686   1.581  -4.668  0.00  0.00     0.033 H 
ATOM     11  H13 <0> d           2.346   1.375  -4.054  0.00  0.00     0.033 H 
ATOM     12  H14 <0> d           0.023  -0.588  -3.844  0.00  0.00     0.038 H 
ATOM     13  H15 <0> d           1.560  -0.817  -4.711  0.00  0.00     0.038 H 
ATOM     14  H16 <0> d           1.892  -2.005  -2.565  0.00  0.00     0.076 H 
ATOM     15  H17 <0> d           2.461  -0.759  -0.713  0.00  0.00     0.077 H 
ENDROOT
BRANCH   1  16
ATOM     16  C4  <0> d           1.304   1.594  -0.066  0.00  0.00     0.045 C 
ATOM     17  H1  <0> d           0.301   1.183   0.043  0.00  0.00     0.084 H 
BRANCH  16  18
ATOM     18  C2  <0> d           1.254   3.115   0.095  0.00  0.00    -0.036 C 
ATOM     19  H6  <0> d           0.684   3.548  -0.727  0.00  0.00     0.042 H 
BRANCH  18  20
ATOM     20  C1  <0> d           0.581   3.465   1.423  0.00  0.00    -0.071 C 
ATOM     21  H3  <0> d           1.151   3.031   2.245  0.00  0.00     0.028 H 
ATOM     22  H4  <0> d           0.545   4.548   1.538  0.00  0.00     0.028 H 
ATOM     23  H5  <0> d          -0.433   3.065   1.434  0.00  0.00     0.028 H 
ENDBRANCH  18  20
BRANCH  18  24
ATOM     24  C3  <0> d           2.677   3.676   0.080  0.00  0.00    -0.071 C 
ATOM     25  H7  <0> d           3.141   3.465  -0.883  0.00  0.00     0.028 H 
ATOM     26  H8  <0> d           2.644   4.754   0.238  0.00  0.00     0.028 H 
ATOM     27  H9  <0> d           3.260   3.210   0.874  0.00  0.00     0.028 H 
ENDBRANCH  18  24
ENDBRANCH  16  18
BRANCH  16  28
ATOM     28  O1  <0> d           2.158   1.037   0.935  0.00  0.00    -0.395 OA
ATOM     29  H18 <0> d           3.070   1.358   0.898  0.00  0.00     0.210 HD
ENDBRANCH  16  28
ENDBRANCH   1  16
TORSDOF 5
