REMARK  2 active torsions:
REMARK  status: ('A' for Active; 'I' for Inactive)
REMARK    1  A    between atoms: C1_1  and  C2_2 
REMARK    2  A    between atoms: C5_5  and  C8_8 
ROOT
ATOM      1  C2  <0> d           0.002  -0.004   0.002  0.00  0.00    -0.062 A 
ATOM      2  C3  <0> d           0.006  -0.686  -1.202  0.00  0.00    -0.076 A 
ATOM      3  C4  <0> d           0.024  -2.065  -1.217  0.00  0.00    -0.066 A 
ATOM      4  C5  <0> d           0.039  -2.773  -0.013  0.00  0.00     0.040 A 
ATOM      5  C6  <0> d           0.036  -2.078   1.199  0.00  0.00    -0.066 A 
ATOM      6  C7  <0> d           0.023  -0.699   1.198  0.00  0.00    -0.076 A 
ATOM      7  H4  <0> d          -0.006  -0.137  -2.132  0.00  0.00     0.084 H 
ATOM      8  H5  <0> d           0.026  -2.596  -2.158  0.00  0.00     0.085 H 
ATOM      9  H6  <0> d           0.048  -2.619   2.133  0.00  0.00     0.085 H 
ATOM     10  H7  <0> d           0.025  -0.160   2.135  0.00  0.00     0.084 H 
ENDROOT
BRANCH   1  11
ATOM     11  C1  <0> d          -0.018   1.503   0.010  0.00  0.00    -0.051 C 
ATOM     12  H1  <0> d           1.004   1.880   0.003  0.00  0.00     0.033 H 
ATOM     13  H2  <0> d          -0.545   1.864  -0.873  0.00  0.00     0.033 H 
ATOM     14  H3  <0> d          -0.529   1.854   0.907  0.00  0.00     0.033 H 
ENDBRANCH   1  11
BRANCH   4  15
ATOM     15  C8  <0> d           0.058  -4.249  -0.021  0.00  0.00     0.209 C 
ATOM     16  O1  <0> d           0.061  -4.854  -1.084  0.00  0.00    -0.644 OA
ATOM     17  O2  <0> d           0.072  -4.866   1.034  0.00  0.00    -0.644 OA
ENDBRANCH   4  15
TORSDOF 2
