REMARK  1 active torsions:
REMARK  status: ('A' for Active; 'I' for Inactive)
REMARK    1  A    between atoms: C1_1  and  C3_4 
ROOT
ATOM      1  C1  <0> d           1.756  -1.813  -0.025  0.00  0.00     0.074 C 
ATOM      2  C2  <0> d           1.180  -2.547   1.113  0.00  0.00     0.067 C 
ATOM      3  N1  <0> d           0.735  -3.114   1.992  0.00  0.00    -0.197 NA
ATOM      4  H1  <0> d           1.458  -2.295  -0.957  0.00  0.00     0.067 H 
ATOM      5  H2  <0> d           2.843  -1.815   0.054  0.00  0.00     0.067 H 
ENDROOT
BRANCH   1   6
ATOM      6  C3  <0> d           1.254  -0.392  -0.012  0.00  0.00     0.186 A 
ATOM      7  N4  <0> d           0.002  -0.004   0.002  0.00  0.00    -0.111 NA
ATOM      8  N3  <0> d          -0.015   1.284   0.009  0.00  0.00    -0.021 NA
ATOM      9  N2  <0> d           1.193   1.728  -0.000  0.00  0.00    -0.021 NA
ATOM     10  N5  <0> d           1.990   0.725  -0.013  0.00  0.00    -0.111 NA
ENDBRANCH   1   6
TORSDOF 1
