REMARK  0 active torsions:
REMARK  status: ('A' for Active; 'I' for Inactive)
ROOT
ATOM      1  C1  <0> d          -0.016   1.354   0.009  0.00  0.00    -0.064 A 
ATOM      2  C2  <0> d           1.307   1.801  -0.001  0.00  0.00    -0.048 A 
ATOM      3  C3  <0> d           2.107   0.680  -0.014  0.00  0.00     0.126 A 
ATOM      4  C4  <0> d           3.555   0.470  -0.030  0.00  0.00     0.275 A 
ATOM      5  O1  <0> d           4.324   1.414  -0.032  0.00  0.00    -0.266 OA
ATOM      6  N1  <0> d           4.016  -0.801  -0.042  0.00  0.00    -0.315 N 
ATOM      7  C5  <0> d           3.142  -1.858  -0.040  0.00  0.00     0.086 A 
ATOM      8  N2  <0> d           1.860  -1.703  -0.026  0.00  0.00    -0.163 NA
ATOM      9  N3  <0> d           1.281  -0.428  -0.013  0.00  0.00    -0.239 N 
ATOM     10  C6  <0> d           0.002  -0.004   0.002  0.00  0.00     0.005 A 
ATOM     11  H1  <0> d          -0.898   1.978   0.025  0.00  0.00     0.085 H 
ATOM     12  H2  <0> d           1.640   2.829   0.001  0.00  0.00     0.087 H 
ATOM     13  H3  <0> d           3.542  -2.861  -0.050  0.00  0.00     0.146 H 
ATOM     14  H4  <0> d          -0.869  -0.642   0.008  0.00  0.00     0.114 H 
ATOM     15  H5  <0> d           4.972  -0.966  -0.052  0.00  0.00     0.170 HD
ENDROOT
TORSDOF 0
