REMARK  8 active torsions:
REMARK  status: ('A' for Active; 'I' for Inactive)
REMARK    1  A    between atoms: C1_1  and  C2_2 
REMARK    2  A    between atoms: C2_2  and  C3_3 
REMARK    3  A    between atoms: C2_2  and  C4_4 
REMARK    4  A    between atoms: C4_4  and  C5_5 
REMARK    5  A    between atoms: C5_5  and  C6_7 
REMARK    6  A    between atoms: C5_5  and  O3_11 
REMARK    7  A    between atoms: C6_7  and  O2_9 
REMARK    8  A    between atoms: O2_9  and  C7_10 
ROOT
ATOM      1  C4  <0> d          -0.735   2.019   1.269  0.00  0.00    -0.030 C 
ATOM      2  H9  <0> d          -0.261   1.586   2.150  0.00  0.00     0.038 H 
ATOM      3  H10 <0> d          -0.672   3.106   1.320  0.00  0.00     0.038 H 
ENDROOT
BRANCH   1   4
ATOM      4  C2  <0> d          -0.019   1.526   0.010  0.00  0.00    -0.058 C 
ATOM      5  H5  <0> d          -0.546   1.887  -0.873  0.00  0.00     0.039 H 
BRANCH   4   6
ATOM      6  C1  <0> d           0.002  -0.004   0.002  0.00  0.00    -0.073 C 
ATOM      7  H2  <0> d           0.529  -0.365   0.885  0.00  0.00     0.028 H 
ATOM      8  H3  <0> d          -1.020  -0.381   0.010  0.00  0.00     0.028 H 
ATOM      9  H4  <0> d           0.512  -0.356  -0.895  0.00  0.00     0.028 H 
ENDBRANCH   4   6
BRANCH   4  10
ATOM     10  C3  <0> d           1.417   2.055  -0.000  0.00  0.00    -0.073 C 
ATOM     11  H6  <0> d           1.927   1.704  -0.897  0.00  0.00     0.028 H 
ATOM     12  H7  <0> d           1.402   3.145   0.006  0.00  0.00     0.028 H 
ATOM     13  H8  <0> d           1.944   1.694   0.883  0.00  0.00     0.028 H 
ENDBRANCH   4  10
ENDBRANCH   1   4
BRANCH   1  14
ATOM     14  C5  <0> d          -2.204   1.595   1.220  0.00  0.00     0.119 C 
ATOM     15  H1  <0> d          -2.266   0.516   1.079  0.00  0.00     0.098 H 
BRANCH  14  16
ATOM     16  C6  <0> d          -2.880   1.973   2.513  0.00  0.00     0.287 C 
ATOM     17  O1  <0> d          -3.762   2.798   2.514  0.00  0.00    -0.262 OA
BRANCH  16  18
ATOM     18  O2  <0> d          -2.502   1.392   3.662  0.00  0.00    -0.324 OA
BRANCH  18  19
ATOM     19  C7  <0> d          -3.196   1.805   4.869  0.00  0.00     0.013 C 
ATOM     20  H11 <0> d          -3.056   2.875   5.021  0.00  0.00     0.067 H 
ATOM     21  H12 <0> d          -4.260   1.589   4.768  0.00  0.00     0.067 H 
ATOM     22  H13 <0> d          -2.795   1.261   5.723  0.00  0.00     0.067 H 
ENDBRANCH  18  19
ENDBRANCH  16  18
ENDBRANCH  14  16
BRANCH  14  23
ATOM     23  O3  <0> d          -2.854   2.255   0.132  0.00  0.00    -0.386 OA
ATOM     24  H14 <0> d          -2.838   3.220   0.191  0.00  0.00     0.210 HD
ENDBRANCH  14  23
ENDBRANCH   1  14
TORSDOF 8
