REMARK  2 active torsions:
REMARK  status: ('A' for Active; 'I' for Inactive)
REMARK    1  A    between atoms: C2_2  and  C5_10 
REMARK    2  A    between atoms: C3_4  and  C4_6 
ROOT
ATOM      1  C1  <0> d          -0.019   1.526   0.010  0.00  0.00    -0.040 A 
ATOM      2  C2  <0> d           1.317   0.779  -0.006  0.00  0.00     0.043 A 
ATOM      3  H1  <0> d           1.906   0.782   0.910  0.00  0.00     0.057 H 
ATOM      4  C3  <0> d           0.002  -0.004   0.002  0.00  0.00     0.054 A 
ATOM      5  H2  <0> d          -0.290  -0.506  -0.920  0.00  0.00     0.054 H 
ATOM      6  H3  <0> d          -0.307   2.020   0.938  0.00  0.00     0.035 H 
ATOM      7  H4  <0> d          -0.325   2.030  -0.906  0.00  0.00     0.035 H 
ENDROOT
BRANCH   4   8
ATOM      8  C4  <0> d          -0.384  -0.723   1.296  0.00  0.00     0.392 C 
ATOM      9  F1  <0> d          -1.606  -1.381   1.118  0.00  0.00    -0.171 F 
ATOM     10  F2  <0> d           0.605  -1.657   1.624  0.00  0.00    -0.171 F 
ATOM     11  F3  <0> d          -0.504   0.211   2.331  0.00  0.00    -0.171 F 
ENDBRANCH   4   8
BRANCH   2  12
ATOM     12  C5  <0> d           2.108   0.797  -1.289  0.00  0.00     0.177 C 
ATOM     13  O1  <0> d           3.162   1.407  -1.346  0.00  0.00    -0.648 OA
ATOM     14  O2  <0> d           1.694   0.202  -2.269  0.00  0.00    -0.648 OA
ENDBRANCH   2  12
TORSDOF 2
