REMARK  3 active torsions:
REMARK  status: ('A' for Active; 'I' for Inactive)
REMARK    1  A    between atoms: C1_1  and  C2_2 
REMARK    2  A    between atoms: C3_3  and  N4_11 
REMARK    3  A    between atoms: C4_4  and  C5_8 
REMARK       I    between atoms: C5_8  and  N3_10 
ROOT
ATOM      1  C2  <0> d           0.002  -0.004   0.002  0.00  0.00     0.052 A 
ATOM      2  C3  <0> d           0.008  -0.806  -1.096  0.00  0.00     0.086 A 
ATOM      3  C4  <0> d           0.029  -2.133  -0.594  0.00  0.00     0.172 A 
ATOM      4  N1  <0> d           0.034  -2.049   0.723  0.00  0.00    -0.167 NA
ATOM      5  N2  <0> d           0.024  -0.818   1.090  0.00  0.00    -0.280 N 
ATOM      6  H1  <0> d           0.029  -0.513   2.011  0.00  0.00     0.189 HD
ENDROOT
BRANCH   3   7
ATOM      7  C5  <0> d           0.042  -3.372  -1.392  0.00  0.00     0.272 C 
ATOM      8  O1  <0> d           0.035  -3.313  -2.607  0.00  0.00    -0.266 OA
ATOM      9  N3  <0> d           0.062  -4.571  -0.776  0.00  0.00    -0.365 N 
ATOM     10  H5  <0> d           0.068  -4.618   0.192  0.00  0.00     0.159 HD
ATOM     11  H6  <0> d           0.071  -5.386  -1.302  0.00  0.00     0.159 HD
ENDBRANCH   3   7
BRANCH   2  12
ATOM     12  N4  <0> d          -0.004  -0.407  -2.440  0.00  0.00    -0.395 N 
ATOM     13  H7  <0> d          -0.018   0.537  -2.666  0.00  0.00     0.156 HD
ATOM     14  H8  <0> d           0.002  -1.074  -3.144  0.00  0.00     0.156 HD
ENDBRANCH   2  12
BRANCH   1  15
ATOM     15  C1  <0> d          -0.018   1.503   0.010  0.00  0.00    -0.034 C 
ATOM     16  H2  <0> d           1.004   1.880   0.003  0.00  0.00     0.035 H 
ATOM     17  H3  <0> d          -0.545   1.864  -0.873  0.00  0.00     0.035 H 
ATOM     18  H4  <0> d          -0.529   1.854   0.907  0.00  0.00     0.035 H 
ENDBRANCH   1  15
TORSDOF 3
