REMARK  3 active torsions:
REMARK  status: ('A' for Active; 'I' for Inactive)
REMARK    1  A    between atoms: C1_1  and  C2_2 
REMARK    2  A    between atoms: C5_6  and  C7_9 
REMARK    3  A    between atoms: C5_6  and  C8_10 
ROOT
ATOM      1  C2  <0> d           1.425   1.982  -0.001  0.00  0.00     0.001 C 
ATOM      2  H1  <0> d           1.538   2.803   0.558  0.00  0.00     0.051 H 
ATOM      3  C3  <0> d           2.224   0.794   0.590  0.00  0.00    -0.055 C 
ATOM      4  C4  <0> d           1.485  -0.431  -0.005  0.00  0.00    -0.051 C 
ATOM      5  C5  <0> d           0.002  -0.004   0.002  0.00  0.00     0.013 C 
ATOM      6  C6  <0> d          -0.018   1.510   0.010  0.00  0.00     0.138 C 
ATOM      7  O1  <0> d          -1.001   2.213   0.019  0.00  0.00    -0.297 OA
ATOM      8  H5  <0> d           2.165   0.791   1.679  0.00  0.00     0.034 H 
ATOM      9  H6  <0> d           3.261   0.820   0.257  0.00  0.00     0.034 H 
ATOM     10  H7  <0> d           1.633  -1.310   0.622  0.00  0.00     0.034 H 
ATOM     11  H8  <0> d           1.822  -0.627  -1.023  0.00  0.00     0.034 H 
ENDROOT
BRANCH   5  12
ATOM     12  C7  <0> d          -0.691  -0.543   1.255  0.00  0.00    -0.063 C 
ATOM     13  H9  <0> d          -1.732  -0.220   1.261  0.00  0.00     0.029 H 
ATOM     14  H10 <0> d          -0.649  -1.633   1.253  0.00  0.00     0.029 H 
ATOM     15  H11 <0> d          -0.187  -0.162   2.142  0.00  0.00     0.029 H 
ENDBRANCH   5  12
BRANCH   5  16
ATOM     16  C8  <0> d          -0.700  -0.530  -1.252  0.00  0.00    -0.063 C 
ATOM     17  H12 <0> d          -0.201  -0.138  -2.139  0.00  0.00     0.029 H 
ATOM     18  H13 <0> d          -0.657  -1.619  -1.262  0.00  0.00     0.029 H 
ATOM     19  H14 <0> d          -1.741  -0.206  -1.248  0.00  0.00     0.029 H 
ENDBRANCH   5  16
BRANCH   1  20
ATOM     20  C1  <0> d           1.881   2.273  -1.432  0.00  0.00    -0.066 C 
ATOM     21  H2  <0> d           1.267   3.069  -1.854  0.00  0.00     0.028 H 
ATOM     22  H3  <0> d           2.925   2.585  -1.424  0.00  0.00     0.028 H 
ATOM     23  H4  <0> d           1.775   1.373  -2.037  0.00  0.00     0.028 H 
ENDBRANCH   1  20
TORSDOF 3
