REMARK  2 active torsions:
REMARK  status: ('A' for Active; 'I' for Inactive)
REMARK    1  A    between atoms: C1_1  and  O1_2 
REMARK    2  A    between atoms: O1_2  and  C2_3 
ROOT
ATOM      1  C2  <0> d          -1.226   1.755   0.017  0.00  0.00     0.183 A 
ATOM      2  C3  <0> d          -0.013   1.076   0.008  0.00  0.00     0.053 A 
ATOM      3  N1  <0> d           1.121   1.752   0.001  0.00  0.00    -0.266 NA
ATOM      4  C4  <0> d           1.105   3.074   0.008  0.00  0.00     0.041 A 
ATOM      5  C5  <0> d          -0.101   3.753   0.023  0.00  0.00     0.146 A 
ATOM      6  N2  <0> d          -1.240   3.080   0.030  0.00  0.00    -0.210 NA
ATOM      7 Cl1  <0> d          -0.118   5.489   0.033  0.00  0.00    -0.061 Cl
ATOM      8  H4  <0> d           0.002  -0.004   0.002  0.00  0.00     0.121 H 
ATOM      9  H5  <0> d           2.034   3.624   0.002  0.00  0.00     0.119 H 
ENDROOT
BRANCH   1  10
ATOM     10  O1  <0> d          -2.393   1.063   0.019  0.00  0.00    -0.338 OA
BRANCH  10  11
ATOM     11  C1  <0> d          -3.600   1.827   0.029  0.00  0.00     0.012 C 
ATOM     12  H1  <0> d          -3.629   2.450   0.922  0.00  0.00     0.067 H 
ATOM     13  H2  <0> d          -3.637   2.460  -0.857  0.00  0.00     0.067 H 
ATOM     14  H3  <0> d          -4.457   1.152   0.029  0.00  0.00     0.067 H 
ENDBRANCH  10  11
ENDBRANCH   1  10
TORSDOF 2
