REMARK  7 active torsions:
REMARK  status: ('A' for Active; 'I' for Inactive)
REMARK    1  A    between atoms: C1_1  and  C2_2 
REMARK    2  A    between atoms: C2_2  and  O1_3 
REMARK    3  A    between atoms: O1_3  and  C3_4 
REMARK    4  A    between atoms: C3_4  and  C4_6 
REMARK    5  A    between atoms: C4_6  and  C5_8 
REMARK    6  A    between atoms: C4_6  and  O4_10 
REMARK    7  A    between atoms: C5_8  and  O3_9 
ROOT
ATOM      1  C3  <0> d          -1.496  -1.832   0.006  0.00  0.00     0.289 C 
ATOM      2  O2  <0> d          -0.528  -2.555  -0.007  0.00  0.00    -0.262 OA
ENDROOT
BRANCH   1   3
ATOM      3  O1  <0> d          -1.339  -0.499   0.012  0.00  0.00    -0.320 OA
BRANCH   3   4
ATOM      4  C2  <0> d           0.002  -0.004   0.002  0.00  0.00     0.026 C 
ATOM      5  H5  <0> d           0.512  -0.356  -0.895  0.00  0.00     0.074 H 
ATOM      6  H6  <0> d           0.529  -0.365   0.885  0.00  0.00     0.074 H 
BRANCH   4   7
ATOM      7  C1  <0> d          -0.019   1.526   0.010  0.00  0.00    -0.056 C 
ATOM      8  H2  <0> d           1.004   1.903   0.003  0.00  0.00     0.030 H 
ATOM      9  H3  <0> d          -0.546   1.887  -0.873  0.00  0.00     0.030 H 
ATOM     10  H4  <0> d          -0.529   1.877   0.907  0.00  0.00     0.030 H 
ENDBRANCH   4   7
ENDBRANCH   3   4
ENDBRANCH   1   3
BRANCH   1  11
ATOM     11  C4  <0> d          -2.881  -2.427   0.017  0.00  0.00     0.139 C 
ATOM     12  H1  <0> d          -3.455  -2.024  -0.818  0.00  0.00     0.102 H 
BRANCH  11  13
ATOM     13  C5  <0> d          -3.578  -2.075   1.333  0.00  0.00     0.049 C 
ATOM     14  H7  <0> d          -3.053  -2.552   2.160  0.00  0.00     0.078 H 
ATOM     15  H8  <0> d          -3.568  -0.994   1.471  0.00  0.00     0.078 H 
BRANCH  13  16
ATOM     16  O3  <0> d          -4.929  -2.538   1.295  0.00  0.00    -0.398 OA
ATOM     17  H9  <0> d          -5.432  -2.349   2.099  0.00  0.00     0.209 HD
ENDBRANCH  13  16
ENDBRANCH  11  13
BRANCH  11  18
ATOM     18  O4  <0> d          -2.790  -3.847  -0.109  0.00  0.00    -0.383 OA
ATOM     19  H10 <0> d          -2.291  -4.274   0.601  0.00  0.00     0.210 HD
ENDBRANCH  11  18
ENDBRANCH   1  11
TORSDOF 7
