REMARK  3 active torsions:
REMARK  status: ('A' for Active; 'I' for Inactive)
REMARK    1  A    between atoms: C1_1  and  C2_2 
REMARK    2  A    between atoms: C2_2  and  C3_3 
REMARK    3  A    between atoms: C5_5  and  O1_10 
ROOT
ATOM      1  C3  <0> d          -2.143   1.058   1.278  0.00  0.00    -0.034 A 
ATOM      2  C4  <0> d          -2.465  -0.049   2.040  0.00  0.00    -0.043 A 
ATOM      3  C5  <0> d          -3.767  -0.526   2.053  0.00  0.00     0.066 A 
ATOM      4  C6  <0> d          -4.742   0.104   1.293  0.00  0.00    -0.049 A 
ATOM      5  C7  <0> d          -4.415   1.207   0.528  0.00  0.00    -0.059 A 
ATOM      6  C8  <0> d          -3.116   1.684   0.520  0.00  0.00     0.040 A 
ATOM      7 Cl1  <0> d          -2.708   3.070  -0.442  0.00  0.00    -0.084 Cl
ATOM      8  H6  <0> d          -1.703  -0.540   2.627  0.00  0.00     0.088 H 
ATOM      9  H7  <0> d          -5.756  -0.269   1.298  0.00  0.00     0.087 H 
ATOM     10  H8  <0> d          -5.174   1.697  -0.064  0.00  0.00     0.086 H 
ENDROOT
BRANCH   1  11
ATOM     11  C2  <0> d          -0.729   1.579   1.267  0.00  0.00    -0.043 C 
ATOM     12  H4  <0> d          -0.202   1.218   2.150  0.00  0.00     0.039 H 
ATOM     13  H5  <0> d          -0.744   2.669   1.273  0.00  0.00     0.039 H 
BRANCH  11  14
ATOM     14  C1  <0> d          -0.013   1.086   0.008  0.00  0.00    -0.073 C 
ATOM     15  H1  <0> d           0.002  -0.004   0.002  0.00  0.00     0.028 H 
ATOM     16  H2  <0> d           1.010   1.463   0.000  0.00  0.00     0.028 H 
ATOM     17  H3  <0> d          -0.540   1.447  -0.875  0.00  0.00     0.028 H 
ENDBRANCH  11  14
ENDBRANCH   1  11
BRANCH   3  18
ATOM     18  O1  <0> d          -4.087  -1.611   2.806  0.00  0.00    -0.361 OA
ATOM     19  H9  <0> d          -3.989  -2.454   2.343  0.00  0.00     0.217 HD
ENDBRANCH   3  18
TORSDOF 3
