REMARK  3 active torsions:
REMARK  status: ('A' for Active; 'I' for Inactive)
REMARK    1  A    between atoms: C1_1  and  O1_2 
REMARK    2  A    between atoms: O1_2  and  C2_3 
REMARK    3  A    between atoms: C3_5  and  N3_10 
ROOT
ATOM      1  C2  <0> d           0.002  -0.004   0.002  0.00  0.00     0.271 A 
ATOM      2  N1  <0> d           1.137  -0.684  -0.013  0.00  0.00    -0.190 NA
ATOM      3  C3  <0> d           2.306  -0.051  -0.020  0.00  0.00     0.128 A 
ATOM      4  C4  <0> d           2.321   1.344  -0.013  0.00  0.00     0.000 A 
ATOM      5  C5  <0> d           1.113   2.016   0.002  0.00  0.00     0.134 A 
ATOM      6  N2  <0> d          -0.016   1.319   0.009  0.00  0.00    -0.195 NA
ATOM      7 Cl1  <0> d           1.073   3.751   0.011  0.00  0.00    -0.062 Cl
ATOM      8  H4  <0> d           3.255   1.887  -0.018  0.00  0.00     0.094 H 
ENDROOT
BRANCH   1   9
ATOM      9  O1  <0> d          -1.172  -0.680   0.010  0.00  0.00    -0.324 OA
BRANCH   9  10
ATOM     10  C1  <0> d          -2.369   0.100   0.026  0.00  0.00     0.013 C 
ATOM     11  H1  <0> d          -3.242  -0.569   0.031  0.00  0.00     0.067 H 
ATOM     12  H2  <0> d          -2.402   0.739  -0.868  0.00  0.00     0.067 H 
ATOM     13  H3  <0> d          -2.385   0.730   0.928  0.00  0.00     0.067 H 
ENDBRANCH   9  10
ENDBRANCH   1   9
BRANCH   3  14
ATOM     14  N3  <0> d           3.493  -0.767  -0.035  0.00  0.00    -0.384 N 
ATOM     15  H5  <0> d           4.455  -0.235  -0.041  0.00  0.00     0.157 HD
ATOM     16  H6  <0> d           3.471  -1.867  -0.041  0.00  0.00     0.157 HD
ENDBRANCH   3  14
TORSDOF 3
