REMARK  3 active torsions:
REMARK  status: ('A' for Active; 'I' for Inactive)
REMARK    1  A    between atoms: C1_1  and  O1_2 
REMARK    2  A    between atoms: O1_2  and  C2_3 
REMARK    3  A    between atoms: C2_3  and  C3_5 
ROOT
ATOM      1  C3  <0> d           2.104   0.788  -0.014  0.00  0.00     0.063 A 
ATOM      2  C4  <0> d           1.275  -0.427  -0.012  0.00  0.00    -0.044 A 
ATOM      3  C5  <0> d           0.002  -0.004   0.002  0.00  0.00     0.019 A 
ATOM      4  O3  <0> d          -0.016   1.338   0.009  0.00  0.00    -0.334 OA
ATOM      5  C6  <0> d           1.225   1.832   0.000  0.00  0.00     0.034 A 
ATOM      6  H4  <0> d           1.621  -1.450  -0.021  0.00  0.00     0.088 H 
ATOM      7  H5  <0> d          -0.869  -0.642   0.007  0.00  0.00     0.123 H 
ATOM      8  H6  <0> d           1.489   2.880   0.003  0.00  0.00     0.125 H 
ENDROOT
BRANCH   1   9
ATOM      9  C2  <0> d           3.575   0.862  -0.027  0.00  0.00     0.294 C 
ATOM     10  O2  <0> d           4.234  -0.159  -0.038  0.00  0.00    -0.259 OA
BRANCH   9  11
ATOM     11  O1  <0> d           4.189   2.062  -0.026  0.00  0.00    -0.322 OA
BRANCH  11  12
ATOM     12  C1  <0> d           5.641   2.059  -0.040  0.00  0.00     0.013 C 
ATOM     13  H1  <0> d           6.011   1.540   0.844  0.00  0.00     0.067 H 
ATOM     14  H2  <0> d           5.995   1.549  -0.936  0.00  0.00     0.067 H 
ATOM     15  H3  <0> d           6.006   3.086  -0.038  0.00  0.00     0.067 H 
ENDBRANCH  11  12
ENDBRANCH   9  11
ENDBRANCH   1   9
TORSDOF 3
