REMARK  1 active torsions:
REMARK  status: ('A' for Active; 'I' for Inactive)
REMARK    1  A    between atoms: C4_5  and  C6_7 
ROOT
ATOM      1  C1  <0> d          -0.654   2.559   3.538  0.00  0.00    -0.079 A 
ATOM      2  C2  <0> d          -2.025   2.758   3.470  0.00  0.00    -0.066 A 
ATOM      3  C3  <0> d          -2.684   2.506   2.282  0.00  0.00     0.003 A 
ATOM      4  N1  <0> d          -2.025   2.086   1.220  0.00  0.00    -0.256 NA
ATOM      5  C4  <0> d          -0.722   1.881   1.250  0.00  0.00     0.140 A 
ATOM      6  C5  <0> d           0.004   2.112   2.403  0.00  0.00    -0.050 A 
ATOM      7  H1  <0> d          -0.113   2.748   4.453  0.00  0.00     0.083 H 
ATOM      8  H2  <0> d          -2.570   3.107   4.335  0.00  0.00     0.085 H 
ATOM      9  H3  <0> d          -3.752   2.658   2.221  0.00  0.00     0.114 H 
ATOM     10  H4  <0> d           1.071   1.947   2.419  0.00  0.00     0.087 H 
ENDROOT
BRANCH   5  11
ATOM     11  C6  <0> d          -0.017   1.395   0.010  0.00  0.00     0.434 C 
ATOM     12  F1  <0> d           0.002  -0.004   0.002  0.00  0.00    -0.165 F 
ATOM     13  F2  <0> d           1.296   1.879  -0.000  0.00  0.00    -0.165 F 
ATOM     14  F3  <0> d          -0.694   1.858  -1.124  0.00  0.00    -0.165 F 
ENDBRANCH   5  11
TORSDOF 1
