REMARK  7 active torsions:
REMARK  status: ('A' for Active; 'I' for Inactive)
REMARK    1  A    between atoms: C1_1  and  C2_2 
REMARK    2  A    between atoms: C2_2  and  C3_3 
REMARK    3  A    between atoms: C3_3  and  C4_4 
REMARK    4  A    between atoms: C4_4  and  C5_5 
REMARK    5  A    between atoms: C5_5  and  C6_6 
REMARK    6  A    between atoms: C6_6  and  C9_10 
REMARK    7  A    between atoms: C7_7  and  C8_8 
ROOT
ATOM      1  C4  <0> d          -1.619   1.927   1.877  0.00  0.00    -0.062 C 
ATOM      2  H8  <0> d          -1.816   0.889   2.145  0.00  0.00     0.033 H 
ATOM      3  H9  <0> d          -0.825   2.321   2.512  0.00  0.00     0.033 H 
ENDROOT
BRANCH   1   4
ATOM      4  C3  <0> d          -2.890   2.755   2.075  0.00  0.00    -0.065 C 
ATOM      5  H6  <0> d          -2.692   3.793   1.808  0.00  0.00     0.033 H 
ATOM      6  H7  <0> d          -3.683   2.361   1.440  0.00  0.00     0.033 H 
BRANCH   4   7
ATOM      7  C2  <0> d          -3.324   2.680   3.541  0.00  0.00    -0.069 C 
ATOM      8  H4  <0> d          -3.522   1.642   3.808  0.00  0.00     0.032 H 
ATOM      9  H5  <0> d          -2.531   3.074   4.176  0.00  0.00     0.032 H 
BRANCH   7  10
ATOM     10  C1  <0> d          -4.595   3.508   3.739  0.00  0.00    -0.077 C 
ATOM     11  H1  <0> d          -4.398   4.546   3.471  0.00  0.00     0.027 H 
ATOM     12  H2  <0> d          -5.389   3.114   3.104  0.00  0.00     0.027 H 
ATOM     13  H3  <0> d          -4.905   3.454   4.783  0.00  0.00     0.027 H 
ENDBRANCH   7  10
ENDBRANCH   4   7
ENDBRANCH   1   4
BRANCH   1  14
ATOM     14  C5  <0> d          -1.184   2.002   0.412  0.00  0.00    -0.045 C 
ATOM     15  H10 <0> d          -0.987   3.041   0.145  0.00  0.00     0.039 H 
ATOM     16  H11 <0> d          -1.978   1.608  -0.223  0.00  0.00     0.039 H 
BRANCH  14  17
ATOM     17  C6  <0> d           0.068   1.187   0.217  0.00  0.00    -0.077 C 
ATOM     18  C7  <0> d          -0.018  -0.073  -0.204  0.00  0.00    -0.008 C 
ATOM     19  H12 <0> d          -0.983  -0.550  -0.289  0.00  0.00     0.094 H 
BRANCH  18  20
ATOM     20  C8  <0> d           1.201  -0.815  -0.553  0.00  0.00     0.198 C 
ATOM     21  O1  <0> d           2.276  -0.247  -0.567  0.00  0.00    -0.644 OA
ATOM     22  O2  <0> d           1.128  -2.126  -0.858  0.00  0.00    -0.644 OA
ENDBRANCH  18  20
BRANCH  17  23
ATOM     23  C9  <0> d           1.417   1.799   0.492  0.00  0.00    -0.054 C 
ATOM     24  H13 <0> d           1.835   2.189  -0.436  0.00  0.00     0.033 H 
ATOM     25  H14 <0> d           1.307   2.612   1.210  0.00  0.00     0.033 H 
ATOM     26  H15 <0> d           2.084   1.040   0.901  0.00  0.00     0.033 H 
ENDBRANCH  17  23
ENDBRANCH  14  17
ENDBRANCH   1  14
TORSDOF 7
