REMARK  3 active torsions:
REMARK  status: ('A' for Active; 'I' for Inactive)
REMARK    1  A    between atoms: C1_1  and  C2_2 
REMARK    2  A    between atoms: C2_2  and  C3_3 
REMARK    3  A    between atoms: C5_5  and  C7_9 
ROOT
ATOM      1  C3  <0> d          -0.017   1.405   0.010  0.00  0.00    -0.041 A 
ATOM      2  C4  <0> d           0.002  -0.004   0.002  0.00  0.00    -0.054 A 
ATOM      3  C5  <0> d           1.294  -0.390  -0.012  0.00  0.00     0.005 A 
ATOM      4  N1  <0> d           2.073   0.729  -0.014  0.00  0.00    -0.369 N 
ATOM      5  H1  <0> d           3.169   0.635  -0.025  0.00  0.00     0.165 HD
ATOM      6  C6  <0> d           1.264   1.826  -0.000  0.00  0.00    -0.017 A 
ATOM      7  H7  <0> d          -0.860  -0.655   0.007  0.00  0.00     0.087 H 
ATOM      8  H8  <0> d           1.592   2.855   0.002  0.00  0.00     0.112 H 
ENDROOT
BRANCH   1   9
ATOM      9  C2  <0> d          -1.244   2.280   0.021  0.00  0.00    -0.043 C 
ATOM     10  H5  <0> d          -2.067   1.765  -0.497  0.00  0.00     0.039 H 
ATOM     11  H6  <0> d          -1.023   3.227  -0.494  0.00  0.00     0.039 H 
BRANCH   9  12
ATOM     12  C1  <0> d          -1.652   2.568   1.467  0.00  0.00    -0.073 C 
ATOM     13  H2  <0> d          -2.547   3.208   1.475  0.00  0.00     0.028 H 
ATOM     14  H3  <0> d          -0.829   3.084   1.984  0.00  0.00     0.028 H 
ATOM     15  H4  <0> d          -1.872   1.622   1.981  0.00  0.00     0.028 H 
ENDBRANCH   9  12
ENDBRANCH   1   9
BRANCH   3  16
ATOM     16  C7  <0> d           1.791  -1.813  -0.024  0.00  0.00    -0.037 C 
ATOM     17  H9  <0> d           2.891  -1.817  -0.035  0.00  0.00     0.035 H 
ATOM     18  H10 <0> d           1.414  -2.325  -0.921  0.00  0.00     0.035 H 
ATOM     19  H11 <0> d           1.431  -2.334   0.875  0.00  0.00     0.035 H 
ENDBRANCH   3  16
TORSDOF 3
