REMARK  4 active torsions:
REMARK  status: ('A' for Active; 'I' for Inactive)
REMARK    1  A    between atoms: C1_1  and  N1_2 
REMARK    2  A    between atoms: N1_2  and  C2_3 
REMARK       I    between atoms: N1_2  and  C4_7 
REMARK    3  A    between atoms: C2_3  and  C3_4 
REMARK    4  A    between atoms: C4_7  and  C5_9 
ROOT
ATOM      1  N1  <0> d           1.143   1.898   0.001  0.00  0.00    -0.346 N 
ATOM      2  C4  <0> d          -0.014   1.209   0.009  0.00  0.00     0.224 C 
ATOM      3  O3  <0> d           0.002  -0.004   0.002  0.00  0.00    -0.273 OA
ENDROOT
BRANCH   1   4
ATOM      4  C1  <0> d           1.124   3.363   0.009  0.00  0.00    -0.015 C 
ATOM      5  H1  <0> d           0.082   3.716   0.021  0.00  0.00     0.056 H 
ATOM      6  H2  <0> d           1.629   3.742  -0.892  0.00  0.00     0.056 H 
ATOM      7  H3  <0> d           1.646   3.732   0.905  0.00  0.00     0.056 H 
ENDBRANCH   1   4
BRANCH   1   8
ATOM      8  C2  <0> d           2.422   1.183  -0.015  0.00  0.00     0.077 C 
ATOM      9  H4  <0> d           3.185   1.785   0.500  0.00  0.00     0.081 H 
ATOM     10  H5  <0> d           2.308   0.218   0.500  0.00  0.00     0.081 H 
BRANCH   8  11
ATOM     11  C3  <0> d           2.847   0.946  -1.441  0.00  0.00     0.191 C 
ATOM     12  O1  <0> d           2.153   1.334  -2.351  0.00  0.00    -0.647 OA
ATOM     13  O2  <0> d           3.996   0.303  -1.701  0.00  0.00    -0.647 OA
ENDBRANCH   8  11
ENDBRANCH   1   8
BRANCH   2  14
ATOM     14  C5  <0> d          -1.330   1.944   0.019  0.00  0.00     0.024 A 
ATOM     15  C7  <0> d          -2.609   1.105   0.022  0.00  0.00    -0.053 A 
ATOM     16  C6  <0> d          -2.180   1.853   1.287  0.00  0.00    -0.053 A 
ATOM     17  H9  <0> d          -3.304   1.492  -0.737  0.00  0.00     0.034 H 
ATOM     18  H10 <0> d          -2.361   0.058  -0.208  0.00  0.00     0.034 H 
ATOM     19  H7  <0> d          -1.579   1.425   2.102  0.00  0.00     0.034 H 
ATOM     20  H8  <0> d          -2.522   2.859   1.573  0.00  0.00     0.034 H 
ATOM     21  H6  <0> d          -0.930   2.761  -0.600  0.00  0.00     0.054 H 
ENDBRANCH   2  14
TORSDOF 4
