REMARK  2 active torsions:
REMARK  status: ('A' for Active; 'I' for Inactive)
REMARK    1  A    between atoms: C6_7  and  C7_8 
REMARK    2  A    between atoms: C7_8  and  O2_9 
ROOT
ATOM      1  C1  <0> d           1.202   3.030  -1.128  0.00  0.00    -0.054 C 
ATOM      2  C2  <0> d           1.274   1.997   0.001  0.00  0.00    -0.009 C 
ATOM      3  C3  <0> d          -0.014   1.203   0.009  0.00  0.00     0.127 C 
ATOM      4  O1  <0> d           0.002  -0.004   0.002  0.00  0.00    -0.298 OA
ATOM      5  C4  <0> d          -1.323   1.961   0.019  0.00  0.00    -0.009 C 
ATOM      6  C5  <0> d          -1.301   2.996  -1.105  0.00  0.00    -0.054 C 
ATOM      7  C6  <0> d          -0.060   3.879  -0.961  0.00  0.00    -0.033 C 
ATOM      8  H1  <0> d           2.081   3.674  -1.088  0.00  0.00     0.034 H 
ATOM      9  H2  <0> d           1.171   2.518  -2.089  0.00  0.00     0.034 H 
ATOM     10  H3  <0> d           1.393   2.466   0.875  0.00  0.00     0.044 H 
ATOM     11  H4  <0> d           2.116   1.326  -0.170  0.00  0.00     0.044 H 
ATOM     12  H5  <0> d          -2.080   1.322  -0.121  0.00  0.00     0.044 H 
ATOM     13  H6  <0> d          -1.446   2.467   0.976  0.00  0.00     0.044 H 
ATOM     14  H7  <0> d          -2.196   3.616  -1.048  0.00  0.00     0.034 H 
ATOM     15  H8  <0> d          -1.273   2.484  -2.067  0.00  0.00     0.034 H 
ATOM     16  H9  <0> d          -0.057   4.342   0.026  0.00  0.00     0.043 H 
ENDROOT
BRANCH   7  17
ATOM     17  C7  <0> d          -0.085   4.970  -2.033  0.00  0.00     0.020 C 
ATOM     18  H10 <0> d           0.838   5.548  -1.984  0.00  0.00     0.074 H 
ATOM     19  H11 <0> d          -0.174   4.511  -3.017  0.00  0.00     0.074 H 
BRANCH  17  20
ATOM     20  O2  <0> d          -1.200   5.834  -1.808  0.00  0.00    -0.400 OA
ATOM     21  H12 <0> d          -1.279   6.551  -2.451  0.00  0.00     0.209 HD
ENDBRANCH  17  20
ENDBRANCH   7  17
TORSDOF 2
