REMARK  2 active torsions:
REMARK  status: ('A' for Active; 'I' for Inactive)
REMARK    1  A    between atoms: C1_1  and  C2_2 
REMARK    2  A    between atoms: C4_5  and  C5_7 
ROOT
ATOM      1  C2  <0> d           1.317   0.779  -0.006  0.00  0.00    -0.044 A 
ATOM      2  H1  <0> d           1.889   0.792  -0.934  0.00  0.00     0.040 H 
ATOM      3  C3  <0> d           0.002  -0.004   0.002  0.00  0.00    -0.048 A 
ATOM      4  C4  <0> d          -0.019   1.526   0.010  0.00  0.00     0.034 A 
ATOM      5  H2  <0> d          -0.307   2.020   0.938  0.00  0.00     0.057 H 
ATOM      6  H6  <0> d          -0.273  -0.516   0.924  0.00  0.00     0.034 H 
ATOM      7  H7  <0> d          -0.291  -0.506  -0.920  0.00  0.00     0.034 H 
ENDROOT
BRANCH   1   8
ATOM      8  C1  <0> d           2.144   0.783   1.280  0.00  0.00    -0.072 C 
ATOM      9  H3  <0> d           1.569   0.325   2.084  0.00  0.00     0.028 H 
ATOM     10  H4  <0> d           3.063   0.217   1.123  0.00  0.00     0.028 H 
ATOM     11  H5  <0> d           2.392   1.810   1.550  0.00  0.00     0.028 H 
ENDBRANCH   1   8
BRANCH   4  12
ATOM     12  C5  <0> d          -0.442   2.223  -1.257  0.00  0.00     0.177 C 
ATOM     13  O1  <0> d           0.265   2.178  -2.236  0.00  0.00    -0.648 OA
ATOM     14  O2  <0> d          -1.604   2.893  -1.298  0.00  0.00    -0.648 OA
ENDBRANCH   4  12
TORSDOF 2
