REMARK  2 active torsions:
REMARK  status: ('A' for Active; 'I' for Inactive)
REMARK    1  A    between atoms: C1_1  and  C2_2 
REMARK    2  A    between atoms: C7_7  and  C8_8 
REMARK       I    between atoms: C8_8  and  N1_10 
ROOT
ATOM      1  C2  <0> d          -0.229  -0.027   0.036  0.00  0.00    -0.046 A 
ATOM      2  C3  <0> d          -0.329  -0.712  -1.158  0.00  0.00    -0.076 A 
ATOM      3  C4  <0> d          -0.080  -2.073  -1.201  0.00  0.00    -0.082 A 
ATOM      4  C5  <0> d           0.270  -2.755  -0.049  0.00  0.00    -0.082 A 
ATOM      5  C6  <0> d           0.373  -2.082   1.151  0.00  0.00    -0.067 A 
ATOM      6  C7  <0> d           0.128  -0.708   1.200  0.00  0.00     0.037 A 
ATOM      7  H4  <0> d          -0.601  -0.186  -2.060  0.00  0.00     0.084 H 
ATOM      8  H5  <0> d          -0.159  -2.604  -2.137  0.00  0.00     0.083 H 
ATOM      9  H6  <0> d           0.462  -3.817  -0.089  0.00  0.00     0.083 H 
ATOM     10  H7  <0> d           0.646  -2.616   2.049  0.00  0.00     0.085 H 
ENDROOT
BRANCH   6  11
ATOM     11  C8  <0> d           0.242   0.021   2.481  0.00  0.00     0.249 C 
ATOM     12  O1  <0> d           0.140   1.232   2.503  0.00  0.00    -0.268 OA
ATOM     13  N1  <0> d           0.460  -0.658   3.626  0.00  0.00    -0.366 N 
ATOM     14  H8  <0> d           0.542  -1.624   3.608  0.00  0.00     0.159 HD
ATOM     15  H9  <0> d           0.535  -0.179   4.466  0.00  0.00     0.159 HD
ENDBRANCH   6  11
BRANCH   1  16
ATOM     16  C1  <0> d          -0.501   1.454   0.081  0.00  0.00    -0.050 C 
ATOM     17  H1  <0> d           0.442   1.998   0.018  0.00  0.00     0.033 H 
ATOM     18  H2  <0> d          -1.137   1.733  -0.759  0.00  0.00     0.033 H 
ATOM     19  H3  <0> d          -1.003   1.704   1.016  0.00  0.00     0.033 H 
ENDBRANCH   1  16
TORSDOF 2
