REMARK  5 active torsions:
REMARK  status: ('A' for Active; 'I' for Inactive)
REMARK    1  A    between atoms: C1_1  and  C2_2 
REMARK    2  A    between atoms: C2_2  and  O3_10 
REMARK    3  A    between atoms: C5_5  and  O2_8 
REMARK    4  A    between atoms: O2_8  and  C6_9 
REMARK    5  A    between atoms: O3_10  and  C7_11 
ROOT
ATOM      1  C2  <0> d           0.569   3.294   0.014  0.00  0.00     0.182 C 
ATOM      2  C3  <0> d           1.041   1.858   0.002  0.00  0.00    -0.043 C 
ATOM      3  C4  <0> d          -0.013   1.076   0.008  0.00  0.00    -0.050 C 
ATOM      4  C5  <0> d          -1.250   1.944   0.018  0.00  0.00     0.151 C 
ATOM      5  H1  <0> d          -1.981   1.549   0.724  0.00  0.00     0.136 H 
ATOM      6  O1  <0> d          -0.806   3.249   0.441  0.00  0.00    -0.319 OA
ATOM      7  H5  <0> d           2.071   1.532  -0.010  0.00  0.00     0.085 H 
ATOM      8  H6  <0> d           0.002  -0.004   0.002  0.00  0.00     0.084 H 
ENDROOT
BRANCH   1   9
ATOM      9  C1  <0> d           1.401   4.115   1.001  0.00  0.00    -0.022 C 
ATOM     10  H2  <0> d           2.449   4.087   0.704  0.00  0.00     0.035 H 
ATOM     11  H3  <0> d           1.051   5.148   1.000  0.00  0.00     0.035 H 
ATOM     12  H4  <0> d           1.296   3.697   2.002  0.00  0.00     0.035 H 
ENDBRANCH   1   9
BRANCH   1  13
ATOM     13  O3  <0> d           0.663   3.856  -1.296  0.00  0.00    -0.357 OA
BRANCH  13  14
ATOM     14  C7  <0> d           0.235   5.216  -1.378  0.00  0.00     0.008 C 
ATOM     15  H10 <0> d           0.337   5.569  -2.404  0.00  0.00     0.066 H 
ATOM     16  H11 <0> d          -0.809   5.288  -1.071  0.00  0.00     0.066 H 
ATOM     17  H12 <0> d           0.850   5.831  -0.720  0.00  0.00     0.066 H 
ENDBRANCH  13  14
ENDBRANCH   1  13
BRANCH   4  18
ATOM     18  O2  <0> d          -1.816   2.011  -1.293  0.00  0.00    -0.363 OA
BRANCH  18  19
ATOM     19  C6  <0> d          -3.039   2.748  -1.361  0.00  0.00     0.007 C 
ATOM     20  H7  <0> d          -3.404   2.752  -2.388  0.00  0.00     0.066 H 
ATOM     21  H8  <0> d          -3.781   2.281  -0.713  0.00  0.00     0.066 H 
ATOM     22  H9  <0> d          -2.864   3.772  -1.033  0.00  0.00     0.066 H 
ENDBRANCH  18  19
ENDBRANCH   4  18
TORSDOF 5
