REMARK  3 active torsions:
REMARK  status: ('A' for Active; 'I' for Inactive)
REMARK    1  A    between atoms: C1_1  and  O1_2 
REMARK    2  A    between atoms: O1_2  and  C2_3 
REMARK    3  A    between atoms: C2_3  and  C3_5 
ROOT
ATOM      1  C3  <0> d          -0.835   1.635  -1.181  0.00  0.00     0.108 C 
ATOM      2  H1  <0> d          -1.558   0.893  -1.520  0.00  0.00     0.070 H 
ATOM      3  C4  <0> d          -0.013   1.086   0.008  0.00  0.00    -0.030 C 
ATOM      4  C5  <0> d          -0.811   1.621   1.217  0.00  0.00    -0.004 C 
ATOM      5  N1  <0> d          -1.508   2.817   0.727  0.00  0.00    -0.360 N 
ATOM      6  C6  <0> d          -1.541   2.847  -0.616  0.00  0.00     0.231 C 
ATOM      7  O3  <0> d          -2.060   3.720  -1.279  0.00  0.00    -0.273 OA
ATOM      8  H5  <0> d           0.002  -0.004   0.002  0.00  0.00     0.037 H 
ATOM      9  H6  <0> d           1.000   1.488   0.001  0.00  0.00     0.037 H 
ATOM     10  H7  <0> d          -1.532   0.876   1.554  0.00  0.00     0.064 H 
ATOM     11  H8  <0> d          -0.133   1.885   2.030  0.00  0.00     0.064 H 
ATOM     12  H9  <0> d          -1.895   3.498   1.300  0.00  0.00     0.162 HD
ENDROOT
BRANCH   1  13
ATOM     13  C2  <0> d           0.077   2.035  -2.312  0.00  0.00     0.271 C 
ATOM     14  O2  <0> d           1.273   1.902  -2.200  0.00  0.00    -0.264 OA
BRANCH  13  15
ATOM     15  O1  <0> d          -0.439   2.538  -3.445  0.00  0.00    -0.326 OA
BRANCH  15  16
ATOM     16  C1  <0> d           0.498   2.902  -4.492  0.00  0.00     0.013 C 
ATOM     17  H2  <0> d           1.065   2.021  -4.795  0.00  0.00     0.067 H 
ATOM     18  H3  <0> d          -0.049   3.294  -5.349  0.00  0.00     0.067 H 
ATOM     19  H4  <0> d           1.183   3.663  -4.119  0.00  0.00     0.067 H 
ENDBRANCH  15  16
ENDBRANCH  13  15
ENDBRANCH   1  13
TORSDOF 3
