REMARK  4 active torsions:
REMARK  status: ('A' for Active; 'I' for Inactive)
REMARK    1  A    between atoms: C1_1  and  C2_2 
REMARK    2  A    between atoms: C2_2  and  C3_4 
REMARK    3  A    between atoms: C2_2  and  O1_10 
REMARK    4  A    between atoms: C3_4  and  N1_5 
ROOT
ATOM      1  C3  <0> d           2.064   1.114   1.238  0.00  0.00     0.041 C 
ATOM      2  H5  <0> d           2.088   0.025   1.278  0.00  0.00     0.071 H 
ATOM      3  H6  <0> d           3.082   1.498   1.186  0.00  0.00     0.071 H 
ENDROOT
BRANCH   1   4
ATOM      4  C2  <0> d           1.286   1.562  -0.002  0.00  0.00     0.049 C 
ATOM      5  H1  <0> d           1.186   2.647   0.005  0.00  0.00     0.085 H 
BRANCH   4   6
ATOM      6  C1  <0> d           2.040   1.127  -1.261  0.00  0.00    -0.051 C 
ATOM      7  H2  <0> d           1.486   1.446  -2.144  0.00  0.00     0.030 H 
ATOM      8  H3  <0> d           3.029   1.584  -1.268  0.00  0.00     0.030 H 
ATOM      9  H4  <0> d           2.140   0.042  -1.268  0.00  0.00     0.030 H 
ENDBRANCH   4   6
BRANCH   4  10
ATOM     10  O1  <0> d          -0.011   0.963   0.007  0.00  0.00    -0.394 OA
ATOM     11  H9  <0> d           0.002  -0.004   0.002  0.00  0.00     0.210 HD
ENDBRANCH   4  10
ENDBRANCH   1   4
BRANCH   1  12
ATOM     12  N1  <0> d           1.406   1.632   2.440  0.00  0.00    -0.260 N 
ATOM     13  N3  <0> d           1.098   2.974   2.719  0.00  0.00    -0.165 NA
ATOM     14  C5  <0> d           0.517   2.992   3.890  0.00  0.00     0.107 A 
ATOM     15  N2  <0> d           0.451   1.747   4.360  0.00  0.00    -0.234 NA
ATOM     16  H8  <0> d           0.153   3.874   4.396  0.00  0.00     0.149 H 
ATOM     17  C4  <0> d           0.983   0.918   3.498  0.00  0.00     0.084 A 
ATOM     18  H7  <0> d           1.066  -0.152   3.615  0.00  0.00     0.146 H 
ENDBRANCH   1  12
TORSDOF 4
