REMARK  5 active torsions:
REMARK  status: ('A' for Active; 'I' for Inactive)
REMARK    1  A    between atoms: C1_1  and  C2_2 
REMARK    2  A    between atoms: C5_5  and  C8_10 
REMARK    3  A    between atoms: N1_6  and  C6_7 
REMARK    4  A    between atoms: C6_7  and  C7_8 
REMARK    5  A    between atoms: C7_8  and  O1_9 
ROOT
ATOM      1  C2  <0> d           1.264   1.826  -0.000  0.00  0.00     0.008 A 
ATOM      2  C3  <0> d          -0.017   1.405   0.010  0.00  0.00    -0.060 A 
ATOM      3  C4  <0> d           0.002  -0.004   0.002  0.00  0.00    -0.060 A 
ATOM      4  C5  <0> d           1.294  -0.390  -0.012  0.00  0.00     0.008 A 
ATOM      5  N1  <0> d           2.073   0.729  -0.014  0.00  0.00    -0.353 N 
ATOM      6  H4  <0> d          -0.896   2.032   0.018  0.00  0.00     0.086 H 
ATOM      7  H5  <0> d          -0.860  -0.655   0.006  0.00  0.00     0.086 H 
ENDROOT
BRANCH   5   8
ATOM      8  C6  <0> d           3.538   0.749  -0.027  0.00  0.00     0.019 C 
ATOM      9  H6  <0> d           3.894   1.641   0.488  0.00  0.00     0.068 H 
ATOM     10  H7  <0> d           3.918  -0.139   0.478  0.00  0.00     0.068 H 
BRANCH   8  11
ATOM     11  C7  <0> d           4.035   0.763  -1.474  0.00  0.00     0.032 C 
ATOM     12  H8  <0> d           3.679  -0.129  -1.990  0.00  0.00     0.076 H 
ATOM     13  H9  <0> d           3.655   1.651  -1.980  0.00  0.00     0.076 H 
BRANCH  11  14
ATOM     14  O1  <0> d           5.463   0.782  -1.488  0.00  0.00    -0.399 OA
ATOM     15  H10 <0> d           5.849   0.792  -2.374  0.00  0.00     0.209 HD
ENDBRANCH  11  14
ENDBRANCH   8  11
ENDBRANCH   5   8
BRANCH   1  16
ATOM     16  C1  <0> d           1.722   3.261   0.003  0.00  0.00    -0.037 C 
ATOM     17  H1  <0> d           1.843   3.602   1.032  0.00  0.00     0.035 H 
ATOM     18  H2  <0> d           2.675   3.340  -0.520  0.00  0.00     0.035 H 
ATOM     19  H3  <0> d           0.980   3.881  -0.500  0.00  0.00     0.035 H 
ENDBRANCH   1  16
BRANCH   4  20
ATOM     20  C8  <0> d           1.791  -1.813  -0.025  0.00  0.00    -0.037 C 
ATOM     21  H11 <0> d           1.900  -2.151  -1.055  0.00  0.00     0.035 H 
ATOM     22  H12 <0> d           2.756  -1.865   0.479  0.00  0.00     0.035 H 
ATOM     23  H13 <0> d           1.076  -2.452   0.493  0.00  0.00     0.035 H 
ENDBRANCH   4  20
TORSDOF 5
