REMARK  2 active torsions:
REMARK  status: ('A' for Active; 'I' for Inactive)
REMARK    1  A    between atoms: C2_2  and  C5_11 
REMARK    2  A    between atoms: C5_11  and  O3_12 
ROOT
ATOM      1  C1  <0> d          -1.195   2.165   0.019  0.00  0.00     0.007 A 
ATOM      2  C2  <0> d          -0.018   1.503   0.010  0.00  0.00     0.042 A 
ATOM      3  N1  <0> d           1.155   2.206   0.003  0.00  0.00    -0.310 N 
ATOM      4  H1  <0> d           2.027   1.716  -0.008  0.00  0.00     0.170 HD
ATOM      5  C3  <0> d           1.148   3.552   0.010  0.00  0.00     0.327 A 
ATOM      6  O1  <0> d           2.202   4.157   0.004  0.00  0.00    -0.247 OA
ATOM      7  N2  <0> d          -0.010   4.237   0.025  0.00  0.00    -0.275 N 
ATOM      8  H2  <0> d           0.003   5.237   0.030  0.00  0.00     0.173 HD
ATOM      9  C4  <0> d          -1.188   3.581   0.033  0.00  0.00     0.251 A 
ATOM     10  O2  <0> d          -2.237   4.200   0.046  0.00  0.00    -0.268 OA
ATOM     11  H3  <0> d          -2.128   1.622   0.021  0.00  0.00     0.095 H 
ENDROOT
BRANCH   2  12
ATOM     12  C5  <0> d           0.002  -0.004   0.002  0.00  0.00     0.055 C 
ATOM     13  H4  <0> d           0.512  -0.356  -0.895  0.00  0.00     0.083 H 
ATOM     14  H5  <0> d           0.529  -0.365   0.885  0.00  0.00     0.083 H 
BRANCH  12  15
ATOM     15  O3  <0> d          -1.339  -0.499   0.012  0.00  0.00    -0.395 OA
ATOM     16  H6  <0> d          -1.402  -1.464   0.008  0.00  0.00     0.209 HD
ENDBRANCH  12  15
ENDBRANCH   2  12
TORSDOF 2
