REMARK  1 active torsions:
REMARK  status: ('A' for Active; 'I' for Inactive)
REMARK    1  A    between atoms: C5_6  and  N2_7 
ROOT
ATOM      1  C1  <0> d          -1.263   3.036   0.030  0.00  0.00    -0.039 A 
ATOM      2  C2  <0> d          -2.486   3.672   0.034  0.00  0.00     0.004 A 
ATOM      3  N1  <0> d          -3.615   2.986   0.036  0.00  0.00    -0.271 NA
ATOM      4  C3  <0> d          -3.634   1.669   0.029  0.00  0.00     0.024 A 
ATOM      5  C4  <0> d          -2.443   0.941   0.019  0.00  0.00     0.088 A 
ATOM      6  C5  <0> d          -1.221   1.642   0.017  0.00  0.00     0.049 A 
ATOM      7  C6  <0> d          -2.463  -0.490   0.011  0.00  0.00     0.103 C 
ATOM      8  N3  <0> d          -2.479  -1.626   0.005  0.00  0.00    -0.191 NA
ATOM      9  H1  <0> d          -0.348   3.610   0.034  0.00  0.00     0.089 H 
ATOM     10  H2  <0> d          -2.522   4.751   0.040  0.00  0.00     0.114 H 
ATOM     11  H3  <0> d          -4.579   1.147   0.030  0.00  0.00     0.117 H 
ENDROOT
BRANCH   6  12
ATOM     12  N2  <0> d          -0.011   0.966   0.007  0.00  0.00    -0.398 N 
ATOM     13  H4  <0> d           0.004  -0.134  -0.003  0.00  0.00     0.156 HD
ATOM     14  H5  <0> d           0.934   1.529   0.011  0.00  0.00     0.156 HD
ENDBRANCH   6  12
TORSDOF 1
