REMARK  0 active torsions:
REMARK  status: ('A' for Active; 'I' for Inactive)
ROOT
ATOM      1  C1  <0> d          -1.198   3.808   0.033  0.00  0.00    -0.027 A 
ATOM      2  C2  <0> d           0.024   4.453   0.025  0.00  0.00     0.005 A 
ATOM      3  N1  <0> d           1.150   3.767   0.011  0.00  0.00    -0.271 NA
ATOM      4  C3  <0> d           1.160   2.448   0.004  0.00  0.00     0.026 A 
ATOM      5  C4  <0> d          -0.021   1.732   0.012  0.00  0.00     0.090 A 
ATOM      6  C5  <0> d          -1.230   2.420   0.021  0.00  0.00     0.140 A 
ATOM      7  F1  <0> d          -2.405   1.754   0.023  0.00  0.00    -0.204 F 
ATOM      8 Cl1  <0> d           0.002  -0.004   0.002  0.00  0.00    -0.080 Cl
ATOM      9  H1  <0> d          -2.116   4.377   0.044  0.00  0.00     0.090 H 
ATOM     10  H2  <0> d           0.057   5.533   0.030  0.00  0.00     0.114 H 
ATOM     11  H3  <0> d           2.103   1.922  -0.007  0.00  0.00     0.117 H 
ENDROOT
TORSDOF 0
