REMARK  4 active torsions:
REMARK  status: ('A' for Active; 'I' for Inactive)
REMARK    1  A    between atoms: C1_1  and  C2_2 
REMARK    2  A    between atoms: N1_5  and  C5_7 
REMARK    3  A    between atoms: C5_7  and  C6_9 
REMARK    4  A    between atoms: C5_7  and  C7_10 
ROOT
ATOM      1  C2  <0> d          -0.718   1.572   1.248  0.00  0.00     0.052 A 
ATOM      2  C3  <0> d          -0.116   1.847   2.480  0.00  0.00    -0.041 A 
ATOM      3  C4  <0> d          -1.082   2.258   3.333  0.00  0.00     0.001 A 
ATOM      4  N1  <0> d          -2.254   2.244   2.665  0.00  0.00    -0.266 N 
ATOM      5  N2  <0> d          -1.999   1.815   1.356  0.00  0.00    -0.177 NA
ATOM      6  H5  <0> d           0.935   1.748   2.709  0.00  0.00     0.088 H 
ATOM      7  H6  <0> d          -0.940   2.546   4.364  0.00  0.00     0.114 H 
ENDROOT
BRANCH   4   8
ATOM      8  C5  <0> d          -3.561   2.617   3.211  0.00  0.00     0.114 C 
ATOM      9  H1  <0> d          -4.347   2.114   2.647  0.00  0.00     0.092 H 
BRANCH   8  10
ATOM     10  C6  <0> d          -3.746   4.132   3.102  0.00  0.00    -0.046 C 
ATOM     11  H7  <0> d          -2.960   4.635   3.666  0.00  0.00     0.031 H 
ATOM     12  H8  <0> d          -3.691   4.430   2.055  0.00  0.00     0.031 H 
ATOM     13  H9  <0> d          -4.719   4.409   3.508  0.00  0.00     0.031 H 
ENDBRANCH   8  10
BRANCH   8  14
ATOM     14  C7  <0> d          -3.638   2.204   4.658  0.00  0.00     0.198 C 
ATOM     15  O1  <0> d          -2.697   1.655   5.180  0.00  0.00    -0.646 OA
ATOM     16  O2  <0> d          -4.752   2.447   5.367  0.00  0.00    -0.646 OA
ENDBRANCH   8  14
ENDBRANCH   4   8
BRANCH   1  17
ATOM     17  C1  <0> d          -0.013   1.086   0.008  0.00  0.00    -0.034 C 
ATOM     18  H2  <0> d           0.002  -0.004   0.002  0.00  0.00     0.035 H 
ATOM     19  H3  <0> d           1.010   1.463   0.000  0.00  0.00     0.035 H 
ATOM     20  H4  <0> d          -0.540   1.447  -0.875  0.00  0.00     0.035 H 
ENDBRANCH   1  17
TORSDOF 4
