REMARK  3 active torsions:
REMARK  status: ('A' for Active; 'I' for Inactive)
REMARK    1  A    between atoms: C1_1  and  O1_2 
REMARK    2  A    between atoms: O1_2  and  C2_3 
REMARK    3  A    between atoms: C2_3  and  C3_5 
ROOT
ATOM      1  C3  <0> d          -1.298   1.929   0.019  0.00  0.00     0.172 A 
ATOM      2  N1  <0> d          -1.531   3.237   0.033  0.00  0.00    -0.247 NA
ATOM      3  C4  <0> d          -2.759   3.680   0.035  0.00  0.00     0.010 A 
ATOM      4  C5  <0> d          -3.800   2.798   0.035  0.00  0.00    -0.026 A 
ATOM      5  S1  <0> d          -2.961   1.276   0.023  0.00  0.00    -0.075 SA
ATOM      6  H4  <0> d          -2.951   4.743   0.042  0.00  0.00     0.115 H 
ATOM      7  H5  <0> d          -4.862   2.993   0.042  0.00  0.00     0.097 H 
ENDROOT
BRANCH   1   8
ATOM      8  C2  <0> d          -0.014   1.211   0.009  0.00  0.00     0.318 C 
ATOM      9  O2  <0> d           0.002  -0.004   0.002  0.00  0.00    -0.257 OA
BRANCH   8  10
ATOM     10  O1  <0> d           1.144   1.901   0.001  0.00  0.00    -0.321 OA
BRANCH  10  11
ATOM     11  C1  <0> d           2.372   1.127  -0.015  0.00  0.00     0.013 C 
ATOM     12  H1  <0> d           3.228   1.803  -0.019  0.00  0.00     0.067 H 
ATOM     13  H2  <0> d           2.414   0.494   0.872  0.00  0.00     0.067 H 
ATOM     14  H3  <0> d           2.397   0.503  -0.908  0.00  0.00     0.067 H 
ENDBRANCH  10  11
ENDBRANCH   8  10
ENDBRANCH   1   8
TORSDOF 3
