REMARK  2 active torsions:
REMARK  status: ('A' for Active; 'I' for Inactive)
REMARK    1  A    between atoms: C1_1  and  S1_2 
REMARK    2  A    between atoms: S1_2  and  C2_4 
ROOT
ATOM      1  C2  <0> d           1.171   2.086   0.002  0.00  0.00     0.069 A 
ATOM      2  C3  <0> d          -0.017   1.378   0.010  0.00  0.00    -0.061 A 
ATOM      3  C4  <0> d           0.002  -0.004   0.002  0.00  0.00    -0.081 A 
ATOM      4  C5  <0> d           1.208  -0.680  -0.013  0.00  0.00    -0.080 A 
ATOM      5  C6  <0> d           2.396   0.025  -0.021  0.00  0.00    -0.044 A 
ATOM      6  C7  <0> d           2.379   1.410  -0.013  0.00  0.00     0.135 A 
ATOM      7  F1  <0> d           3.540   2.101  -0.021  0.00  0.00    -0.205 F 
ATOM      8  H4  <0> d          -0.959   1.905   0.017  0.00  0.00     0.085 H 
ATOM      9  H5  <0> d          -0.926  -0.556   0.007  0.00  0.00     0.083 H 
ATOM     10  H6  <0> d           1.222  -1.760  -0.019  0.00  0.00     0.083 H 
ATOM     11  H7  <0> d           3.338  -0.503  -0.032  0.00  0.00     0.088 H 
ENDROOT
BRANCH   1  12
ATOM     12  S1  <0> d           1.146   3.848   0.012  0.00  0.00     0.048 S 
ATOM     13  O1  <0> d          -0.162   4.176  -0.435  0.00  0.00    -0.253 OA
BRANCH  12  14
ATOM     14  C1  <0> d           1.311   4.279   1.767  0.00  0.00    -0.003 C 
ATOM     15  H1  <0> d           2.248   3.879   2.153  0.00  0.00     0.045 H 
ATOM     16  H2  <0> d           1.306   5.363   1.877  0.00  0.00     0.045 H 
ATOM     17  H3  <0> d           0.477   3.853   2.325  0.00  0.00     0.045 H 
ENDBRANCH  12  14
ENDBRANCH   1  12
TORSDOF 2
