REMARK  4 active torsions:
REMARK  status: ('A' for Active; 'I' for Inactive)
REMARK    1  A    between atoms: C1_1  and  C2_2 
REMARK    2  A    between atoms: C5_7  and  C8_11 
REMARK    3  A    between atoms: C8_11  and  C9_12 
REMARK    4  A    between atoms: C8_11  and  C10_13 
ROOT
ATOM      1  C2  <0> d           1.462  -1.948   0.395  0.00  0.00     0.005 C 
ATOM      2  H1  <0> d           2.416  -1.702   0.228  0.00  0.00     0.051 H 
ATOM      3  C3  <0> d           0.711  -0.805   1.110  0.00  0.00    -0.036 A 
ATOM      4  H2  <0> d           1.230  -0.308   1.929  0.00  0.00     0.042 H 
ATOM      5  C4  <0> d          -0.846  -0.772   1.018  0.00  0.00    -0.052 A 
ATOM      6  C5  <0> d           0.002  -0.004   0.002  0.00  0.00    -0.026 A 
ATOM      7  C6  <0> d           0.360  -0.704  -1.326  0.00  0.00    -0.002 C 
ATOM      8  C7  <0> d           0.708  -2.132  -0.918  0.00  0.00     0.131 C 
ATOM      9  O1  <0> d           0.448  -3.160  -1.496  0.00  0.00    -0.298 OA
ATOM     10  H6  <0> d          -1.391  -0.189   1.760  0.00  0.00     0.034 H 
ATOM     11  H7  <0> d          -1.345  -1.678   0.673  0.00  0.00     0.034 H 
ATOM     12  H8  <0> d          -0.423  -0.663  -1.946  0.00  0.00     0.045 H 
ATOM     13  H9  <0> d           1.219  -0.221  -1.792  0.00  0.00     0.045 H 
ENDROOT
BRANCH   6  14
ATOM     14  C8  <0> d          -0.019   1.526   0.010  0.00  0.00    -0.053 C 
ATOM     15  H10 <0> d           1.004   1.903   0.003  0.00  0.00     0.040 H 
BRANCH  14  16
ATOM     16  C9  <0> d          -0.759   2.033  -1.229  0.00  0.00    -0.072 C 
ATOM     17  H11 <0> d          -1.781   1.655  -1.221  0.00  0.00     0.028 H 
ATOM     18  H12 <0> d          -0.773   3.123  -1.223  0.00  0.00     0.028 H 
ATOM     19  H13 <0> d          -0.248   1.681  -2.126  0.00  0.00     0.028 H 
ENDBRANCH  14  16
BRANCH  14  20
ATOM     20  C10 <0> d          -0.735   2.019   1.269  0.00  0.00    -0.072 C 
ATOM     21  H14 <0> d          -1.757   1.642   1.277  0.00  0.00     0.028 H 
ATOM     22  H15 <0> d          -0.208   1.658   2.152  0.00  0.00     0.028 H 
ATOM     23  H16 <0> d          -0.750   3.109   1.275  0.00  0.00     0.028 H 
ENDBRANCH  14  20
ENDBRANCH   6  14
BRANCH   1  24
ATOM     24  C1  <0> d           1.403  -3.230   1.228  0.00  0.00    -0.066 C 
ATOM     25  H3  <0> d           1.882  -4.042   0.680  0.00  0.00     0.028 H 
ATOM     26  H4  <0> d           1.924  -3.073   2.173  0.00  0.00     0.028 H 
ATOM     27  H5  <0> d           0.363  -3.488   1.425  0.00  0.00     0.028 H 
ENDBRANCH   1  24
TORSDOF 4
