REMARK  2 active torsions:
REMARK  status: ('A' for Active; 'I' for Inactive)
REMARK    1  A    between atoms: C4_5  and  C6_8 
REMARK    2  A    between atoms: C5_6  and  O1_7 
ROOT
ATOM      1  C1  <0> d          -0.017   1.413   0.010  0.00  0.00    -0.033 A 
ATOM      2  C2  <0> d           1.147   2.092   0.002  0.00  0.00     0.008 A 
ATOM      3  N1  <0> d           2.347   1.458  -0.013  0.00  0.00    -0.232 NA
ATOM      4  C3  <0> d           2.453   0.118  -0.021  0.00  0.00     0.229 A 
ATOM      5  C4  <0> d           1.311  -0.674  -0.015  0.00  0.00     0.131 A 
ATOM      6  C5  <0> d           0.002  -0.004   0.002  0.00  0.00     0.088 A 
ATOM      7  F1  <0> d           3.674  -0.461  -0.036  0.00  0.00    -0.183 F 
ATOM      8  H1  <0> d          -0.957   1.945   0.026  0.00  0.00     0.090 H 
ATOM      9  H2  <0> d           1.124   3.172   0.008  0.00  0.00     0.115 H 
ENDROOT
BRANCH   5  10
ATOM     10  C6  <0> d           1.409  -2.137  -0.024  0.00  0.00     0.217 C 
ATOM     11  O2  <0> d           2.507  -2.677  -0.039  0.00  0.00    -0.644 OA
ATOM     12  O3  <0> d           0.392  -2.818  -0.018  0.00  0.00    -0.644 OA
ENDBRANCH   5  10
BRANCH   6  13
ATOM     13  O1  <0> d          -1.035  -0.648   0.009  0.00  0.00    -0.359 OA
ATOM     14  H3  <0> d          -1.835  -0.105   0.019  0.00  0.00     0.217 HD
ENDBRANCH   6  13
TORSDOF 2
