REMARK  3 active torsions:
REMARK  status: ('A' for Active; 'I' for Inactive)
REMARK    1  A    between atoms: C2_2  and  S1_3 
REMARK    2  A    between atoms: S1_3  and  C3_4 
REMARK    3  A    between atoms: C8_9  and  N1_10 
ROOT
ATOM      1  C3  <0> d           1.180   2.111  -0.000  0.00  0.00     0.030 A 
ATOM      2  C4  <0> d           1.154   3.498   0.025  0.00  0.00    -0.064 A 
ATOM      3  C5  <0> d          -0.056   4.166   0.038  0.00  0.00    -0.082 A 
ATOM      4  C6  <0> d          -1.242   3.457   0.027  0.00  0.00    -0.081 A 
ATOM      5  C7  <0> d          -1.226   2.074  -0.004  0.00  0.00    -0.056 A 
ATOM      6  C8  <0> d          -0.017   1.395  -0.011  0.00  0.00     0.043 A 
ATOM      7  H4  <0> d           2.079   4.056   0.033  0.00  0.00     0.085 H 
ATOM      8  H5  <0> d          -0.074   5.246   0.057  0.00  0.00     0.083 H 
ATOM      9  H6  <0> d          -2.185   3.983   0.037  0.00  0.00     0.083 H 
ATOM     10  H7  <0> d          -2.155   1.523  -0.017  0.00  0.00     0.086 H 
ENDROOT
BRANCH   1  11
ATOM     11  S1  <0> d           2.721   1.257  -0.018  0.00  0.00    -0.101 SA
BRANCH  11  12
ATOM     12  C2  <0> d           3.919   2.540  -0.172  0.00  0.00    -0.053 C 
ATOM     13  C1  <0> d           5.197   2.237  -0.317  0.00  0.00    -0.115 C 
ATOM     14  H1  <0> d           5.507   1.203  -0.342  0.00  0.00     0.067 H 
ATOM     15  H2  <0> d           5.931   3.024  -0.412  0.00  0.00     0.067 H 
ATOM     16  H3  <0> d           3.608   3.574  -0.147  0.00  0.00     0.093 H 
ENDBRANCH  11  12
ENDBRANCH   1  11
BRANCH   6  17
ATOM     17  N1  <0> d           0.002  -0.004  -0.036  0.00  0.00    -0.398 N 
ATOM     18  H8  <0> d           0.849  -0.477  -0.046  0.00  0.00     0.156 HD
ATOM     19  H9  <0> d          -0.831  -0.500  -0.044  0.00  0.00     0.156 HD
ENDBRANCH   6  17
TORSDOF 3
