REMARK  2 active torsions:
REMARK  status: ('A' for Active; 'I' for Inactive)
REMARK    1  A    between atoms: C1_1  and  S1_2 
REMARK    2  A    between atoms: S1_2  and  C2_3 
ROOT
ATOM      1  C2  <0> d          -0.022   1.758   0.012  0.00  0.00     0.099 A 
ATOM      2  C3  <0> d           1.188   2.484   0.004  0.00  0.00    -0.034 A 
ATOM      3  C4  <0> d           1.140   3.837   0.012  0.00  0.00    -0.016 A 
ATOM      4  N1  <0> d          -0.071   4.461   0.027  0.00  0.00    -0.317 N 
ATOM      5  H1  <0> d          -0.124   5.560   0.034  0.00  0.00     0.170 HD
ATOM      6  C5  <0> d          -1.208   3.741   0.033  0.00  0.00     0.346 A 
ATOM      7  O1  <0> d          -2.283   4.317   0.047  0.00  0.00    -0.245 OA
ATOM      8  N2  <0> d          -1.178   2.410   0.021  0.00  0.00    -0.187 NA
ATOM      9  H5  <0> d           2.137   1.968  -0.007  0.00  0.00     0.090 H 
ATOM     10  H6  <0> d           2.053   4.415   0.006  0.00  0.00     0.111 H 
ENDROOT
BRANCH   1  11
ATOM     11  S1  <0> d           0.002  -0.004   0.002  0.00  0.00    -0.115 SA
BRANCH  11  12
ATOM     12  C1  <0> d          -1.776  -0.343   0.017  0.00  0.00    -0.029 C 
ATOM     13  H2  <0> d          -1.942  -1.430   0.013  0.00  0.00     0.042 H 
ATOM     14  H3  <0> d          -2.242   0.103  -0.874  0.00  0.00     0.042 H 
ATOM     15  H4  <0> d          -2.224   0.093   0.922  0.00  0.00     0.042 H 
ENDBRANCH  11  12
ENDBRANCH   1  11
TORSDOF 2
