REMARK  0 active torsions:
REMARK  status: ('A' for Active; 'I' for Inactive)
ROOT
ATOM      1  C1  <0> d          -0.018   1.505   0.010  0.00  0.00    -0.029 C 
ATOM      2  C2  <0> d           1.365   2.076   0.000  0.00  0.00    -0.102 C 
ATOM      3  C3  <0> d           2.378   1.412  -0.472  0.00  0.00    -0.102 C 
ATOM      4  C4  <0> d           2.226   0.035  -1.037  0.00  0.00    -0.029 C 
ATOM      5  C5  <0> d           1.016  -0.668  -0.471  0.00  0.00    -0.070 C 
ATOM      6  C6  <0> d           0.002  -0.004   0.002  0.00  0.00    -0.070 C 
ATOM      7  C7  <0> d          -1.208  -0.707   0.567  0.00  0.00    -0.029 C 
ATOM      8  C8  <0> d          -0.871  -2.084   1.048  0.00  0.00    -0.102 C 
ATOM      9  C9  <0> d           0.142  -2.747   0.575  0.00  0.00    -0.102 C 
ATOM     10  C10 <0> d           1.037  -2.177  -0.480  0.00  0.00    -0.029 C 
ATOM     11  H1  <0> d          -0.538   1.849   0.904  0.00  0.00     0.045 H 
ATOM     12  H2  <0> d          -0.555   1.858  -0.870  0.00  0.00     0.045 H 
ATOM     13  H3  <0> d           1.526   3.067   0.397  0.00  0.00     0.076 H 
ATOM     14  H4  <0> d           3.357   1.868  -0.457  0.00  0.00     0.076 H 
ATOM     15  H5  <0> d           2.123   0.104  -2.120  0.00  0.00     0.045 H 
ATOM     16  H6  <0> d           3.118  -0.546  -0.802  0.00  0.00     0.045 H 
ATOM     17  H7  <0> d          -1.600  -0.126   1.401  0.00  0.00     0.045 H 
ATOM     18  H8  <0> d          -1.972  -0.778  -0.206  0.00  0.00     0.045 H 
ATOM     19  H9  <0> d          -1.488  -2.539   1.808  0.00  0.00     0.076 H 
ATOM     20  H10 <0> d           0.344  -3.738   0.955  0.00  0.00     0.076 H 
ATOM     21  H11 <0> d           0.707  -2.532  -1.456  0.00  0.00     0.045 H 
ATOM     22  H12 <0> d           2.057  -2.520  -0.305  0.00  0.00     0.045 H 
ENDROOT
TORSDOF 0
