REMARK  2 active torsions:
REMARK  status: ('A' for Active; 'I' for Inactive)
REMARK    1  A    between atoms: C1_1  and  C2_2 
REMARK    2  A    between atoms: C6_8  and  O1_12 
ROOT
ATOM      1  C2  <0> d          -2.643   3.560   0.046  0.00  0.00    -0.031 A 
ATOM      2  C3  <0> d          -3.370   2.433   0.047  0.00  0.00    -0.016 A 
ATOM      3  N1  <0> d          -2.541   1.343   0.033  0.00  0.00    -0.365 N 
ATOM      4  H1  <0> d          -2.835   0.419   0.030  0.00  0.00     0.165 HD
ATOM      5  C4  <0> d          -1.227   1.755   0.017  0.00  0.00     0.045 A 
ATOM      6  C5  <0> d          -1.234   3.161   0.030  0.00  0.00     0.031 A 
ATOM      7  C6  <0> d          -0.023   3.864   0.023  0.00  0.00     0.078 A 
ATOM      8  C7  <0> d           1.170   3.168   0.008  0.00  0.00    -0.050 A 
ATOM      9  C8  <0> d           1.171   1.780   0.000  0.00  0.00    -0.078 A 
ATOM     10  C9  <0> d          -0.013   1.076   0.008  0.00  0.00    -0.056 A 
ATOM     11  H5  <0> d          -4.449   2.391   0.058  0.00  0.00     0.112 H 
ATOM     12  H6  <0> d           2.106   3.706   0.002  0.00  0.00     0.087 H 
ATOM     13  H7  <0> d           2.110   1.247  -0.011  0.00  0.00     0.083 H 
ATOM     14  H8  <0> d           0.002  -0.004   0.002  0.00  0.00     0.086 H 
ENDROOT
BRANCH   1  15
ATOM     15  C1  <0> d          -3.175   4.970   0.059  0.00  0.00    -0.049 C 
ATOM     16  H2  <0> d          -3.313   5.316  -0.966  0.00  0.00     0.033 H 
ATOM     17  H3  <0> d          -4.130   4.994   0.582  0.00  0.00     0.033 H 
ATOM     18  H4  <0> d          -2.465   5.622   0.569  0.00  0.00     0.033 H 
ENDBRANCH   1  15
BRANCH   7  19
ATOM     19  O1  <0> d          -0.022   5.223   0.031  0.00  0.00    -0.360 OA
ATOM     20  H9  <0> d          -0.030   5.622  -0.850  0.00  0.00     0.217 HD
ENDBRANCH   7  19
TORSDOF 2
