REMARK  3 active torsions:
REMARK  status: ('A' for Active; 'I' for Inactive)
REMARK    1  A    between atoms: C1_1  and  C2_2 
REMARK    2  A    between atoms: C6_8  and  C8_10 
REMARK    3  A    between atoms: C6_8  and  C9_11 
ROOT
ATOM      1  C2  <0> d          -0.761   1.597  -1.227  0.00  0.00    -0.051 C 
ATOM      2  H1  <0> d          -1.751   1.142  -1.267  0.00  0.00     0.040 H 
ATOM      3  C3  <0> d          -0.013   1.086   0.008  0.00  0.00    -0.007 C 
ATOM      4  C4  <0> d          -0.728   1.577   1.247  0.00  0.00     0.128 C 
ATOM      5  O1  <0> d          -1.040   0.812   2.127  0.00  0.00    -0.298 OA
ATOM      6  C5  <0> d          -1.049   3.053   1.351  0.00  0.00    -0.003 C 
ATOM      7  C6  <0> d          -1.760   3.493   0.067  0.00  0.00    -0.041 C 
ATOM      8  C7  <0> d          -0.902   3.118  -1.143  0.00  0.00    -0.055 C 
ATOM      9  H5  <0> d           0.004   0.086  -0.002  0.00  0.00     0.044 H 
ATOM     10  H6  <0> d           1.009   1.466   0.000  0.00  0.00     0.044 H 
ATOM     11  H7  <0> d          -0.201   3.571   1.466  0.00  0.00     0.045 H 
ATOM     12  H8  <0> d          -1.699   3.227   2.208  0.00  0.00     0.045 H 
ATOM     13  H9  <0> d           0.085   3.568  -1.040  0.00  0.00     0.034 H 
ATOM     14  H10 <0> d          -1.377   3.489  -2.051  0.00  0.00     0.034 H 
ENDROOT
BRANCH   7  15
ATOM     15  C8  <0> d          -1.970   5.008   0.094  0.00  0.00    -0.069 C 
ATOM     16  H11 <0> d          -2.475   5.321  -0.820  0.00  0.00     0.028 H 
ATOM     17  H12 <0> d          -2.581   5.275   0.956  0.00  0.00     0.028 H 
ATOM     18  H13 <0> d          -1.004   5.508   0.165  0.00  0.00     0.028 H 
ENDBRANCH   7  15
BRANCH   7  19
ATOM     19  C9  <0> d          -3.116   2.791  -0.032  0.00  0.00    -0.069 C 
ATOM     20  H14 <0> d          -2.966   1.712  -0.050  0.00  0.00     0.028 H 
ATOM     21  H15 <0> d          -3.727   3.059   0.831  0.00  0.00     0.028 H 
ATOM     22  H16 <0> d          -3.621   3.104  -0.946  0.00  0.00     0.028 H 
ENDBRANCH   7  19
BRANCH   1  23
ATOM     23  C1  <0> d           0.022   1.226  -2.488  0.00  0.00    -0.072 C 
ATOM     24  H2  <0> d           0.123   0.143  -2.548  0.00  0.00     0.028 H 
ATOM     25  H3  <0> d          -0.511   1.590  -3.367  0.00  0.00     0.028 H 
ATOM     26  H4  <0> d           1.011   1.682  -2.449  0.00  0.00     0.028 H 
ENDBRANCH   1  23
TORSDOF 3
