REMARK  1 active torsions:
REMARK  status: ('A' for Active; 'I' for Inactive)
REMARK    1  A    between atoms: C1_1  and  C2_2 
ROOT
ATOM      1  C2  <0> d           0.002  -0.004   0.002  0.00  0.00     0.033 A 
ATOM      2  C3  <0> d           0.006  -0.677  -1.203  0.00  0.00    -0.057 A 
ATOM      3  C4  <0> d           0.024  -2.065  -1.204  0.00  0.00    -0.044 A 
ATOM      4  C5  <0> d           0.038  -2.726   0.017  0.00  0.00     0.121 A 
ATOM      5  C6  <0> d           0.036  -1.983   1.193  0.00  0.00     0.199 A 
ATOM      6  N1  <0> d           0.022  -0.660   1.146  0.00  0.00    -0.228 NA
ATOM      7  O1  <0> d           0.058  -2.605   2.402  0.00  0.00    -0.330 OA
ATOM      8  C7  <0> d          -0.303  -3.990   2.421  0.00  0.00     0.048 C 
ATOM      9  C8  <0> d           0.441  -4.698   1.280  0.00  0.00     0.046 C 
ATOM     10  O2  <0> d           0.052  -4.085   0.045  0.00  0.00    -0.345 OA
ATOM     11  H4  <0> d          -0.006  -0.131  -2.135  0.00  0.00     0.086 H 
ATOM     12  H5  <0> d           0.026  -2.617  -2.132  0.00  0.00     0.088 H 
ATOM     13  H6  <0> d          -0.017  -4.432   3.375  0.00  0.00     0.078 H 
ATOM     14  H7  <0> d          -1.379  -4.091   2.276  0.00  0.00     0.078 H 
ATOM     15  H8  <0> d           1.516  -4.592   1.421  0.00  0.00     0.078 H 
ATOM     16  H9  <0> d           0.173  -5.755   1.266  0.00  0.00     0.078 H 
ENDROOT
BRANCH   1  17
ATOM     17  C1  <0> d          -0.018   1.503   0.010  0.00  0.00    -0.035 C 
ATOM     18  H1  <0> d           1.004   1.880   0.003  0.00  0.00     0.035 H 
ATOM     19  H2  <0> d          -0.545   1.864  -0.873  0.00  0.00     0.035 H 
ATOM     20  H3  <0> d          -0.529   1.854   0.907  0.00  0.00     0.035 H 
ENDBRANCH   1  17
TORSDOF 1
