REMARK  1 active torsions:
REMARK  status: ('A' for Active; 'I' for Inactive)
REMARK    1  A    between atoms: C1_1  and  N4_8 
ROOT
ATOM      1  C1  <0> d          -0.017   1.379   0.010  0.00  0.00     0.717 A 
ATOM      2  N1  <0> d           1.036   2.168   0.004  0.00  0.00    -0.030 NA
ATOM      3  H1  <0> d          -2.042   1.861   0.021  0.00  0.00     0.208 HD
ATOM      4  C2  <0> d           0.643   3.443   0.014  0.00  0.00     0.259 A 
ATOM      5  N2  <0> d          -0.663   3.487   0.027  0.00  0.00    -0.126 NA
ATOM      6  N3  <0> d          -1.118   2.159   0.018  0.00  0.00    -0.105 N 
ATOM      7 Cl1  <0> d           1.697   4.822   0.012  0.00  0.00    -0.039 Cl
ENDROOT
BRANCH   1   8
ATOM      8  N4  <0> d           0.002  -0.004   0.002  0.00  0.00    -0.231 N 
ATOM      9  H2  <0> d           0.849  -0.478  -0.008  0.00  0.00     0.174 HD
ATOM     10  H3  <0> d          -0.831  -0.500   0.007  0.00  0.00     0.174 HD
ENDBRANCH   1   8
TORSDOF 1
