REMARK  8 active torsions:
REMARK  status: ('A' for Active; 'I' for Inactive)
REMARK    1  A    between atoms: C1_1  and  C2_2 
REMARK    2  A    between atoms: C2_2  and  C3_3 
REMARK    3  A    between atoms: C2_2  and  C4_4 
REMARK    4  A    between atoms: C4_4  and  C5_5 
REMARK       I    between atoms: C5_5  and  N1_7 
REMARK    5  A    between atoms: N1_7  and  C6_8 
REMARK    6  A    between atoms: C6_8  and  C7_9 
REMARK    7  A    between atoms: C7_9  and  C8_10 
REMARK    8  A    between atoms: C7_9  and  C9_11 
ROOT
ATOM      1  C5  <0> d           2.165   1.031  -1.177  0.00  0.00     0.217 C 
ATOM      2  O1  <0> d           1.601   0.266  -1.931  0.00  0.00    -0.274 OA
ATOM      3  N1  <0> d           3.455   1.358  -1.389  0.00  0.00    -0.361 N 
ATOM      4  H10 <0> d           3.906   1.970  -0.786  0.00  0.00     0.162 HD
ENDROOT
BRANCH   1   5
ATOM      5  C4  <0> d           1.423   1.615  -0.003  0.00  0.00     0.012 C 
ATOM      6  H8  <0> d           1.408   2.702  -0.086  0.00  0.00     0.047 H 
ATOM      7  H9  <0> d           1.923   1.329   0.922  0.00  0.00     0.047 H 
BRANCH   5   8
ATOM      8  C2  <0> d          -0.013   1.086   0.008  0.00  0.00    -0.053 C 
ATOM      9  H4  <0> d           0.002  -0.004   0.002  0.00  0.00     0.039 H 
BRANCH   8  10
ATOM     10  C1  <0> d          -0.753   1.593  -1.232  0.00  0.00    -0.073 C 
ATOM     11  H1  <0> d          -0.767   2.683  -1.226  0.00  0.00     0.028 H 
ATOM     12  H2  <0> d          -0.242   1.241  -2.128  0.00  0.00     0.028 H 
ATOM     13  H3  <0> d          -1.775   1.215  -1.224  0.00  0.00     0.028 H 
ENDBRANCH   8  10
BRANCH   8  14
ATOM     14  C3  <0> d          -0.729   1.579   1.267  0.00  0.00    -0.073 C 
ATOM     15  H5  <0> d          -0.744   2.669   1.273  0.00  0.00     0.028 H 
ATOM     16  H6  <0> d          -1.751   1.202   1.275  0.00  0.00     0.028 H 
ATOM     17  H7  <0> d          -0.202   1.218   2.150  0.00  0.00     0.028 H 
ENDBRANCH   8  14
ENDBRANCH   5   8
ENDBRANCH   1   5
BRANCH   3  18
ATOM     18  C6  <0> d           4.176   0.790  -2.531  0.00  0.00    -0.002 C 
ATOM     19  H11 <0> d           4.191  -0.297  -2.447  0.00  0.00     0.064 H 
ATOM     20  H12 <0> d           3.676   1.077  -3.456  0.00  0.00     0.064 H 
BRANCH  18  21
ATOM     21  C7  <0> d           5.612   1.320  -2.542  0.00  0.00    -0.046 C 
ATOM     22  H13 <0> d           5.597   2.409  -2.536  0.00  0.00     0.041 H 
BRANCH  21  23
ATOM     23  C8  <0> d           6.352   0.813  -1.302  0.00  0.00    -0.072 C 
ATOM     24  H14 <0> d           7.374   1.190  -1.310  0.00  0.00     0.028 H 
ATOM     25  H15 <0> d           5.842   1.164  -0.405  0.00  0.00     0.028 H 
ATOM     26  H16 <0> d           6.367  -0.277  -1.308  0.00  0.00     0.028 H 
ENDBRANCH  21  23
BRANCH  21  27
ATOM     27  C9  <0> d           6.328   0.826  -3.800  0.00  0.00    -0.072 C 
ATOM     28  H17 <0> d           5.801   1.187  -4.684  0.00  0.00     0.028 H 
ATOM     29  H18 <0> d           7.351   1.204  -3.808  0.00  0.00     0.028 H 
ATOM     30  H19 <0> d           6.343  -0.264  -3.806  0.00  0.00     0.028 H 
ENDBRANCH  21  27
ENDBRANCH  18  21
ENDBRANCH   3  18
TORSDOF 8
