REMARK  6 active torsions:
REMARK  status: ('A' for Active; 'I' for Inactive)
REMARK    1  A    between atoms: C1_1  and  C2_2 
REMARK    2  A    between atoms: C2_2  and  N1_3 
REMARK       I    between atoms: N1_3  and  C3_4 
REMARK    3  A    between atoms: C3_4  and  C4_6 
REMARK    4  A    between atoms: C4_6  and  C5_7 
REMARK    5  A    between atoms: C4_6  and  C6_8 
REMARK    6  A    between atoms: C4_6  and  O2_9 
ROOT
ATOM      1  N1  <0> d           1.405   0.924   2.385  0.00  0.00    -0.359 N 
ATOM      2  C3  <0> d           2.052   1.121   1.219  0.00  0.00     0.251 C 
ATOM      3  O1  <0> d           3.250   0.943   1.152  0.00  0.00    -0.270 OA
ATOM      4  H6  <0> d           0.447   1.067   2.439  0.00  0.00     0.162 HD
ENDROOT
BRANCH   2   5
ATOM      5  C4  <0> d           1.286   1.562  -0.002  0.00  0.00     0.131 C 
BRANCH   5   6
ATOM      6  C5  <0> d           2.040   1.127  -1.261  0.00  0.00    -0.040 C 
ATOM      7  H7  <0> d           1.486   1.446  -2.144  0.00  0.00     0.032 H 
ATOM      8  H8  <0> d           3.029   1.584  -1.268  0.00  0.00     0.032 H 
ATOM      9  H9  <0> d           2.140   0.042  -1.268  0.00  0.00     0.032 H 
ENDBRANCH   5   6
BRANCH   5  10
ATOM     10  C6  <0> d           1.145   3.085   0.008  0.00  0.00    -0.040 C 
ATOM     11  H10 <0> d           0.608   3.395   0.904  0.00  0.00     0.032 H 
ATOM     12  H11 <0> d           2.135   3.542   0.001  0.00  0.00     0.032 H 
ATOM     13  H12 <0> d           0.591   3.404  -0.875  0.00  0.00     0.032 H 
ENDBRANCH   5  10
BRANCH   5  14
ATOM     14  O2  <0> d          -0.011   0.963   0.007  0.00  0.00    -0.381 OA
ATOM     15  H13 <0> d           0.002  -0.004   0.002  0.00  0.00     0.211 HD
ENDBRANCH   5  14
ENDBRANCH   2   5
BRANCH   1  16
ATOM     16  C2  <0> d           2.150   0.495   3.572  0.00  0.00    -0.008 C 
ATOM     17  H4  <0> d           2.631  -0.462   3.373  0.00  0.00     0.063 H 
ATOM     18  H5  <0> d           2.908   1.240   3.814  0.00  0.00     0.063 H 
BRANCH  16  19
ATOM     19  C1  <0> d           1.187   0.347   4.752  0.00  0.00    -0.061 C 
ATOM     20  H1  <0> d           1.740   0.028   5.635  0.00  0.00     0.029 H 
ATOM     21  H2  <0> d           0.706   1.304   4.951  0.00  0.00     0.029 H 
ATOM     22  H3  <0> d           0.428  -0.398   4.510  0.00  0.00     0.029 H 
ENDBRANCH  16  19
ENDBRANCH   1  16
TORSDOF 6
