REMARK  2 active torsions:
REMARK  status: ('A' for Active; 'I' for Inactive)
REMARK    1  A    between atoms: C3_3  and  C5_6 
REMARK    2  A    between atoms: C7_8  and  N2_11 
ROOT
ATOM      1  C5  <0> d           3.573   0.619  -0.029  0.00  0.00     0.122 A 
ATOM      2  C6  <0> d           4.377  -0.542  -0.048  0.00  0.00     0.001 A 
ATOM      3  C7  <0> d           5.676  -0.152  -0.057  0.00  0.00     0.168 A 
ATOM      4  O2  <0> d           5.708   1.192  -0.044  0.00  0.00    -0.195 OA
ATOM      5  N1  <0> d           4.373   1.664  -0.031  0.00  0.00    -0.124 NA
ATOM      6  H4  <0> d           4.020  -1.562  -0.055  0.00  0.00     0.094 H 
ENDROOT
BRANCH   1   7
ATOM      7  C3  <0> d           2.096   0.655  -0.014  0.00  0.00     0.106 A 
ATOM      8  C2  <0> d           1.325   1.775  -0.001  0.00  0.00    -0.046 A 
ATOM      9  C1  <0> d          -0.016   1.344   0.009  0.00  0.00    -0.059 A 
ATOM     10  H2  <0> d           1.673   2.797   0.001  0.00  0.00     0.087 H 
ATOM     11  C4  <0> d           0.002  -0.004   0.002  0.00  0.00     0.019 A 
ATOM     12  H1  <0> d          -0.893   1.974   0.025  0.00  0.00     0.086 H 
ATOM     13  O1  <0> d           1.279  -0.416  -0.012  0.00  0.00    -0.320 OA
ATOM     14  H3  <0> d          -0.867  -0.646   0.007  0.00  0.00     0.123 H 
ENDBRANCH   1   7
BRANCH   3  15
ATOM     15  N2  <0> d           6.776  -0.990  -0.077  0.00  0.00    -0.378 N 
ATOM     16  H5  <0> d           6.652  -1.952  -0.085  0.00  0.00     0.158 HD
ATOM     17  H6  <0> d           7.671  -0.616  -0.082  0.00  0.00     0.158 HD
ENDBRANCH   3  15
TORSDOF 2
