REMARK  0 active torsions:
REMARK  status: ('A' for Active; 'I' for Inactive)
ROOT
ATOM      1  C1  <0> d          -0.017   1.393   0.010  0.00  0.00    -0.062 A 
ATOM      2  C2  <0> d           1.170   2.101   0.002  0.00  0.00    -0.073 A 
ATOM      3  C3  <0> d           2.374   1.433  -0.013  0.00  0.00    -0.025 A 
ATOM      4  C4  <0> d           2.412   0.035  -0.021  0.00  0.00     0.041 A 
ATOM      5  C5  <0> d           1.219  -0.684  -0.014  0.00  0.00    -0.047 A 
ATOM      6  C6  <0> d           0.002  -0.004   0.002  0.00  0.00     0.045 A 
ATOM      7  C7  <0> d          -1.228  -0.737   0.010  0.00  0.00     0.099 C 
ATOM      8  N1  <0> d          -2.204  -1.318   0.016  0.00  0.00    -0.191 NA
ATOM      9  C8  <0> d           3.825  -0.389  -0.037  0.00  0.00     0.252 A 
ATOM     10  O1  <0> d           4.204  -1.544  -0.047  0.00  0.00    -0.268 OA
ATOM     11  N2  <0> d           4.634   0.684  -0.039  0.00  0.00    -0.353 N 
ATOM     12  C9  <0> d           3.809   1.897  -0.025  0.00  0.00     0.020 A 
ATOM     13  H1  <0> d          -0.960   1.920   0.026  0.00  0.00     0.085 H 
ATOM     14  H2  <0> d           1.153   3.181   0.008  0.00  0.00     0.084 H 
ATOM     15  H3  <0> d           1.236  -1.764  -0.020  0.00  0.00     0.087 H 
ATOM     16  H4  <0> d           5.604   0.661  -0.048  0.00  0.00     0.163 HD
ATOM     17  H5  <0> d           4.003   2.493  -0.917  0.00  0.00     0.071 H 
ATOM     18  H6  <0> d           4.021   2.483   0.870  0.00  0.00     0.071 H 
ENDROOT
TORSDOF 0
