REMARK  4 active torsions:
REMARK  status: ('A' for Active; 'I' for Inactive)
REMARK    1  A    between atoms: C1_1  and  C2_2 
REMARK    2  A    between atoms: C3_3  and  C8_10 
REMARK    3  A    between atoms: C4_4  and  O1_9 
REMARK    4  A    between atoms: C7_7  and  N1_8 
ROOT
ATOM      1  C2  <0> d          -0.718   1.572   1.248  0.00  0.00    -0.027 A 
ATOM      2  C3  <0> d           0.000   1.806   2.405  0.00  0.00    -0.021 A 
ATOM      3  C4  <0> d          -0.649   2.253   3.546  0.00  0.00     0.072 A 
ATOM      4  C5  <0> d          -2.020   2.465   3.527  0.00  0.00    -0.048 A 
ATOM      5  C6  <0> d          -2.739   2.232   2.371  0.00  0.00    -0.054 A 
ATOM      6  C7  <0> d          -2.089   1.790   1.226  0.00  0.00     0.032 A 
ATOM      7  H4  <0> d          -2.524   2.814   4.416  0.00  0.00     0.087 H 
ATOM      8  H5  <0> d          -3.806   2.398   2.357  0.00  0.00     0.087 H 
ENDROOT
BRANCH   1   9
ATOM      9  C1  <0> d          -0.013   1.086   0.008  0.00  0.00    -0.049 C 
ATOM     10  H1  <0> d           0.002  -0.004   0.002  0.00  0.00     0.033 H 
ATOM     11  H2  <0> d           1.010   1.463   0.000  0.00  0.00     0.033 H 
ATOM     12  H3  <0> d          -0.540   1.447  -0.875  0.00  0.00     0.033 H 
ENDBRANCH   1   9
BRANCH   6  13
ATOM     13  N1  <0> d          -2.816   1.560   0.053  0.00  0.00    -0.399 N 
ATOM     14  H6  <0> d          -2.363   1.247  -0.745  0.00  0.00     0.156 HD
ATOM     15  H7  <0> d          -3.774   1.712   0.038  0.00  0.00     0.156 HD
ENDBRANCH   6  13
BRANCH   2  16
ATOM     16  C8  <0> d           1.489   1.575   2.426  0.00  0.00    -0.048 C 
ATOM     17  H9  <0> d           2.003   2.492   2.139  0.00  0.00     0.033 H 
ATOM     18  H10 <0> d           1.797   1.285   3.431  0.00  0.00     0.033 H 
ATOM     19  H11 <0> d           1.744   0.780   1.725  0.00  0.00     0.033 H 
ENDBRANCH   2  16
BRANCH   3  20
ATOM     20  O1  <0> d           0.059   2.482   4.684  0.00  0.00    -0.360 OA
ATOM     21  H8  <0> d           0.397   3.385   4.761  0.00  0.00     0.217 HD
ENDBRANCH   3  20
TORSDOF 4
