REMARK  8 active torsions:
REMARK  status: ('A' for Active; 'I' for Inactive)
REMARK    1  A    between atoms: C1_1  and  C2_2 
REMARK    2  A    between atoms: C2_2  and  C3_3 
REMARK    3  A    between atoms: C3_3  and  C4_5 
REMARK    4  A    between atoms: C3_3  and  O3_9 
REMARK    5  A    between atoms: C4_5  and  O2_7 
REMARK    6  A    between atoms: O2_7  and  C5_8 
REMARK    7  A    between atoms: O3_9  and  C6_10 
REMARK    8  A    between atoms: C6_10  and  C7_11 
ROOT
ATOM      1  C3  <0> d          -1.415  -0.526   0.141  0.00  0.00     0.121 C 
ATOM      2  H1  <0> d          -1.826   0.049  -0.688  0.00  0.00     0.099 H 
ENDROOT
BRANCH   1   3
ATOM      3  C2  <0> d           0.103  -0.338   0.190  0.00  0.00    -0.035 C 
ATOM      4  H5  <0> d           0.551  -0.768  -0.706  0.00  0.00     0.036 H 
ATOM      5  H6  <0> d           0.503  -0.838   1.072  0.00  0.00     0.036 H 
BRANCH   3   6
ATOM      6  C1  <0> d           0.430   1.155   0.257  0.00  0.00    -0.074 C 
ATOM      7  H2  <0> d           1.511   1.291   0.261  0.00  0.00     0.027 H 
ATOM      8  H3  <0> d           0.003   1.660  -0.610  0.00  0.00     0.027 H 
ATOM      9  H4  <0> d           0.007   1.579   1.169  0.00  0.00     0.027 H 
ENDBRANCH   3   6
ENDBRANCH   1   3
BRANCH   1  10
ATOM     10  C4  <0> d          -1.734  -1.986  -0.054  0.00  0.00     0.287 C 
ATOM     11  O1  <0> d          -2.309  -2.600   0.814  0.00  0.00    -0.262 OA
BRANCH  10  12
ATOM     12  O2  <0> d          -1.379  -2.605  -1.191  0.00  0.00    -0.324 OA
BRANCH  12  13
ATOM     13  C5  <0> d          -1.713  -3.989  -1.308  0.00  0.00     0.013 C 
ATOM     14  H7  <0> d          -1.229  -4.548  -0.507  0.00  0.00     0.067 H 
ATOM     15  H8  <0> d          -2.794  -4.110  -1.234  0.00  0.00     0.067 H 
ATOM     16  H9  <0> d          -1.371  -4.365  -2.272  0.00  0.00     0.067 H 
ENDBRANCH  12  13
ENDBRANCH  10  12
ENDBRANCH   1  10
BRANCH   1  17
ATOM     17  O3  <0> d          -1.991  -0.072   1.367  0.00  0.00    -0.376 OA
BRANCH  17  18
ATOM     18  C6  <0> d          -2.768   1.120   1.238  0.00  0.00     0.017 C 
ATOM     19  H10 <0> d          -2.122   1.944   0.936  0.00  0.00     0.073 H 
ATOM     20  H11 <0> d          -3.542   0.970   0.486  0.00  0.00     0.073 H 
BRANCH  18  21
ATOM     21  C7  <0> d          -3.421   1.451   2.582  0.00  0.00    -0.056 C 
ATOM     22  H12 <0> d          -4.067   0.627   2.885  0.00  0.00     0.030 H 
ATOM     23  H13 <0> d          -2.647   1.601   3.335  0.00  0.00     0.030 H 
ATOM     24  H14 <0> d          -4.014   2.360   2.483  0.00  0.00     0.030 H 
ENDBRANCH  18  21
ENDBRANCH  17  18
ENDBRANCH   1  17
TORSDOF 8
