REMARK  0 active torsions:
REMARK  status: ('A' for Active; 'I' for Inactive)
ROOT
ATOM      1  C1  <0> d           1.173   2.163   0.003  0.00  0.00     0.031 A 
ATOM      2  C2  <0> d          -0.017   1.428   0.010  0.00  0.00     0.116 A 
ATOM      3  C3  <0> d          -1.236   2.135   0.019  0.00  0.00     0.204 A 
ATOM      4  N1  <0> d          -1.205   3.461   0.031  0.00  0.00    -0.295 N 
ATOM      5  C4  <0> d          -0.054   4.113   0.024  0.00  0.00     0.279 A 
ATOM      6  N2  <0> d           1.111   3.483   0.010  0.00  0.00    -0.217 NA
ATOM      7  O1  <0> d          -0.067   5.466   0.031  0.00  0.00    -0.149 OA
ATOM      8  O2  <0> d          -2.416   1.474   0.021  0.00  0.00    -0.170 OA
ATOM      9  C5  <0> d           0.002  -0.004   0.002  0.00  0.00     0.105 C 
ATOM     10  N3  <0> d           0.018  -1.140  -0.004  0.00  0.00    -0.191 NA
ATOM     11  H1  <0> d           2.128   1.659  -0.009  0.00  0.00     0.117 H 
ATOM     12  H2  <0> d          -2.145   4.033   0.046  0.00  0.00     0.171 HD
ENDROOT
TORSDOF 0
