REMARK  0 active torsions:
REMARK  status: ('A' for Active; 'I' for Inactive)
ROOT
ATOM      1  C1  <0> d          -0.017   1.372   0.010  0.00  0.00    -0.081 A 
ATOM      2  C2  <0> d           1.172   2.083   0.002  0.00  0.00    -0.081 A 
ATOM      3  C3  <0> d           2.376   1.417  -0.014  0.00  0.00    -0.053 A 
ATOM      4  C4  <0> d           2.417   0.014  -0.022  0.00  0.00     0.084 A 
ATOM      5  C5  <0> d           1.219  -0.704  -0.013  0.00  0.00     0.084 A 
ATOM      6  C6  <0> d           0.002  -0.004   0.002  0.00  0.00    -0.053 A 
ATOM      7  N1  <0> d           1.147  -2.062  -0.020  0.00  0.00    -0.263 NA
ATOM      8  C7  <0> d           1.890  -2.839  -0.723  0.00  0.00    -0.013 C 
ATOM      9  C8  <0> d           2.912  -2.192  -1.646  0.00  0.00    -0.004 C 
ATOM     10  C9  <0> d           3.975  -1.591  -0.739  0.00  0.00    -0.013 C 
ATOM     11  N2  <0> d           3.649  -0.564  -0.038  0.00  0.00    -0.263 NA
ATOM     12  H1  <0> d          -0.960   1.898   0.026  0.00  0.00     0.083 H 
ATOM     13  H2  <0> d           1.153   3.163   0.008  0.00  0.00     0.083 H 
ATOM     14  H3  <0> d           3.298   1.980  -0.020  0.00  0.00     0.087 H 
ATOM     15  H4  <0> d          -0.929  -0.551   0.008  0.00  0.00     0.087 H 
ATOM     16  H5  <0> d           1.793  -3.913  -0.662  0.00  0.00     0.108 H 
ATOM     17  H6  <0> d           3.357  -2.943  -2.299  0.00  0.00     0.049 H 
ATOM     18  H7  <0> d           2.439  -1.410  -2.239  0.00  0.00     0.049 H 
ATOM     19  H8  <0> d           4.968  -2.013  -0.685  0.00  0.00     0.108 H 
ENDROOT
TORSDOF 0
