REMARK  7 active torsions:
REMARK  status: ('A' for Active; 'I' for Inactive)
REMARK    1  A    between atoms: C1_1  and  C2_2 
REMARK    2  A    between atoms: C2_2  and  C3_3 
REMARK    3  A    between atoms: C3_3  and  C4_4 
REMARK    4  A    between atoms: C4_4  and  C5_5 
REMARK    5  A    between atoms: C5_5  and  C6_7 
REMARK    6  A    between atoms: C6_7  and  C7_8 
REMARK    7  A    between atoms: C7_8  and  C8_9 
ROOT
ATOM      1  C4  <0> d          -5.089   0.894   0.031  0.00  0.00    -0.010 C 
ATOM      2  H8  <0> d          -5.138   0.323  -0.788  0.00  0.00     0.044 H 
ATOM      3  H9  <0> d          -5.134   0.262   0.918  0.00  0.00     0.044 H 
ENDROOT
BRANCH   1   4
ATOM      4  C3  <0> d          -6.265   1.873   0.042  0.00  0.00    -0.059 C 
ATOM      5  H6  <0> d          -6.212   2.495   0.935  0.00  0.00     0.033 H 
ATOM      6  H7  <0> d          -6.220   2.505  -0.845  0.00  0.00     0.033 H 
BRANCH   4   7
ATOM      7  C2  <0> d          -7.580   1.090   0.044  0.00  0.00    -0.068 C 
ATOM      8  H4  <0> d          -7.633   0.467  -0.849  0.00  0.00     0.032 H 
ATOM      9  H5  <0> d          -7.625   0.458   0.931  0.00  0.00     0.032 H 
BRANCH   7  10
ATOM     10  C1  <0> d          -8.756   2.068   0.055  0.00  0.00    -0.077 C 
ATOM     11  H1  <0> d          -8.702   2.691   0.948  0.00  0.00     0.027 H 
ATOM     12  H2  <0> d          -8.711   2.700  -0.832  0.00  0.00     0.027 H 
ATOM     13  H3  <0> d          -9.692   1.510   0.056  0.00  0.00     0.027 H 
ENDBRANCH   7  10
ENDBRANCH   4   7
ENDBRANCH   1   4
BRANCH   1  14
ATOM     14  C5  <0> d          -3.794   1.665   0.029  0.00  0.00     0.127 C 
ATOM     15  O1  <0> d          -3.810   2.873   0.036  0.00  0.00    -0.298 OA
BRANCH  14  16
ATOM     16  C6  <0> d          -2.479   0.930   0.019  0.00  0.00    -0.001 C 
ATOM     17  H10 <0> d          -2.422   0.360  -0.801  0.00  0.00     0.045 H 
ATOM     18  H11 <0> d          -2.408   0.299   0.905  0.00  0.00     0.045 H 
BRANCH  16  19
ATOM     19  C7  <0> d          -1.329   1.940   0.019  0.00  0.00     0.022 C 
ATOM     20  H12 <0> d          -1.391   2.561   0.913  0.00  0.00     0.049 H 
ATOM     21  H13 <0> d          -1.400   2.570  -0.867  0.00  0.00     0.049 H 
BRANCH  19  22
ATOM     22  C8  <0> d          -0.014   1.204   0.009  0.00  0.00     0.172 C 
ATOM     23  O2  <0> d           0.002  -0.004   0.002  0.00  0.00    -0.648 OA
ATOM     24  O3  <0> d           1.139   1.891   0.001  0.00  0.00    -0.648 OA
ENDBRANCH  19  22
ENDBRANCH  16  19
ENDBRANCH  14  16
ENDBRANCH   1  14
TORSDOF 7
