REMARK  4 active torsions:
REMARK  status: ('A' for Active; 'I' for Inactive)
REMARK    1  A    between atoms: C1_1  and  C2_2 
REMARK    2  A    between atoms: C2_2  and  C3_3 
REMARK    3  A    between atoms: C3_3  and  C4_4 
REMARK    4  A    between atoms: C4_4  and  C5_5 
ROOT
ATOM      1  C5  <0> d          -0.013   1.086   0.008  0.00  0.00     0.004 C 
ATOM      2  H1  <0> d           0.004   0.086   0.003  0.00  0.00     0.051 H 
ATOM      3  C6  <0> d          -0.738   1.584   1.263  0.00  0.00    -0.055 C 
ATOM      4  C7  <0> d          -2.207   1.162   1.202  0.00  0.00    -0.064 C 
ATOM      5  C8  <0> d          -2.891   1.838   0.012  0.00  0.00    -0.059 C 
ATOM      6  C9  <0> d          -2.247   1.349  -1.290  0.00  0.00    -0.009 C 
ATOM      7  C10 <0> d          -0.752   1.591  -1.212  0.00  0.00     0.131 C 
ATOM      8  O1  <0> d          -0.167   2.172  -2.094  0.00  0.00    -0.298 OA
ATOM      9  H11 <0> d          -0.272   1.151   2.148  0.00  0.00     0.034 H 
ATOM     10  H12 <0> d          -0.673   2.671   1.313  0.00  0.00     0.034 H 
ATOM     11  H13 <0> d          -2.269   0.080   1.089  0.00  0.00     0.033 H 
ATOM     12  H14 <0> d          -2.707   1.459   2.124  0.00  0.00     0.033 H 
ATOM     13  H15 <0> d          -3.951   1.584   0.011  0.00  0.00     0.033 H 
ATOM     14  H16 <0> d          -2.776   2.918   0.092  0.00  0.00     0.033 H 
ATOM     15  H17 <0> d          -2.429   0.373  -1.406  0.00  0.00     0.044 H 
ATOM     16  H18 <0> d          -2.665   1.899  -2.134  0.00  0.00     0.044 H 
ENDROOT
BRANCH   1  17
ATOM     17  C4  <0> d           1.421   1.619  -0.003  0.00  0.00    -0.055 C 
ATOM     18  H9  <0> d           1.404   2.706  -0.086  0.00  0.00     0.034 H 
ATOM     19  H10 <0> d           1.922   1.334   0.922  0.00  0.00     0.034 H 
BRANCH  17  20
ATOM     20  C3  <0> d           2.176   1.028  -1.195  0.00  0.00    -0.065 C 
ATOM     21  H7  <0> d           2.194  -0.059  -1.111  0.00  0.00     0.033 H 
ATOM     22  H8  <0> d           1.676   1.313  -2.120  0.00  0.00     0.033 H 
BRANCH  20  23
ATOM     23  C2  <0> d           3.610   1.561  -1.206  0.00  0.00    -0.069 C 
ATOM     24  H5  <0> d           3.593   2.648  -1.289  0.00  0.00     0.032 H 
ATOM     25  H6  <0> d           4.111   1.276  -0.281  0.00  0.00     0.032 H 
BRANCH  23  26
ATOM     26  C1  <0> d           4.365   0.970  -2.398  0.00  0.00    -0.077 C 
ATOM     27  H2  <0> d           3.865   1.255  -3.323  0.00  0.00     0.027 H 
ATOM     28  H3  <0> d           5.387   1.350  -2.405  0.00  0.00     0.027 H 
ATOM     29  H4  <0> d           4.383  -0.117  -2.314  0.00  0.00     0.027 H 
ENDBRANCH  23  26
ENDBRANCH  20  23
ENDBRANCH  17  20
ENDBRANCH   1  17
TORSDOF 4
