REMARK  3 active torsions:
REMARK  status: ('A' for Active; 'I' for Inactive)
REMARK    1  A    between atoms: C1_1  and  C2_2 
REMARK    2  A    between atoms: C2_2  and  C3_3 
REMARK    3  A    between atoms: C3_3  and  C5_7 
ROOT
ATOM      1  C3  <0> d          -0.729   1.579   1.267  0.00  0.00     0.055 C 
ATOM      2  H1  <0> d          -1.776   1.277   1.232  0.00  0.00     0.070 H 
ATOM      3  C4  <0> d          -0.644   3.047   1.336  0.00  0.00     0.068 C 
ATOM      4  N1  <0> d          -0.579   4.180   1.389  0.00  0.00    -0.197 NA
ENDROOT
BRANCH   1   5
ATOM      5  C2  <0> d          -0.013   1.086   0.008  0.00  0.00    -0.050 C 
ATOM      6  H5  <0> d           0.002  -0.004   0.002  0.00  0.00     0.034 H 
ATOM      7  H6  <0> d           1.010   1.463   0.000  0.00  0.00     0.034 H 
BRANCH   5   8
ATOM      8  C1  <0> d          -0.753   1.593  -1.232  0.00  0.00    -0.075 C 
ATOM      9  H2  <0> d          -1.775   1.215  -1.224  0.00  0.00     0.027 H 
ATOM     10  H3  <0> d          -0.767   2.683  -1.226  0.00  0.00     0.027 H 
ATOM     11  H4  <0> d          -0.242   1.241  -2.128  0.00  0.00     0.027 H 
ENDBRANCH   5   8
ENDBRANCH   1   5
BRANCH   1  12
ATOM     12  C5  <0> d          -0.074   0.981   2.485  0.00  0.00    -0.041 A 
ATOM     13  C10 <0> d          -0.809   0.185   3.344  0.00  0.00    -0.076 A 
ATOM     14  C9  <0> d          -0.208  -0.364   4.462  0.00  0.00    -0.082 A 
ATOM     15  H11 <0> d          -1.852  -0.006   3.143  0.00  0.00     0.084 H 
ATOM     16  C8  <0> d           1.128  -0.118   4.719  0.00  0.00    -0.083 A 
ATOM     17  H10 <0> d          -0.782  -0.984   5.133  0.00  0.00     0.083 H 
ATOM     18  C7  <0> d           1.863   0.676   3.859  0.00  0.00    -0.082 A 
ATOM     19  H9  <0> d           1.597  -0.547   5.592  0.00  0.00     0.083 H 
ATOM     20  C6  <0> d           1.263   1.222   2.739  0.00  0.00    -0.076 A 
ATOM     21  H8  <0> d           2.907   0.868   4.060  0.00  0.00     0.083 H 
ATOM     22  H7  <0> d           1.839   1.839   2.065  0.00  0.00     0.084 H 
ENDBRANCH   1  12
TORSDOF 3
