REMARK  1 active torsions:
REMARK  status: ('A' for Active; 'I' for Inactive)
REMARK    1  A    between atoms: C6_6  and  N1_7 
ROOT
ATOM      1  C1  <0> d           4.386   1.441  -2.041  0.00  0.00    -0.055 A 
ATOM      2  C2  <0> d           3.487   2.037  -1.173  0.00  0.00    -0.045 A 
ATOM      3  C3  <0> d           2.287   1.411  -0.884  0.00  0.00     0.158 A 
ATOM      4  C4  <0> d           1.982   0.182  -1.469  0.00  0.00     0.064 A 
ATOM      5  C5  <0> d           2.882  -0.414  -2.336  0.00  0.00    -0.030 A 
ATOM      6  C6  <0> d           4.086   0.217  -2.623  0.00  0.00     0.028 A 
ATOM      7  N2  <0> d           0.763  -0.447  -1.175  0.00  0.00    -0.386 N 
ATOM      8  C7  <0> d           0.002  -0.004   0.002  0.00  0.00     0.016 C 
ATOM      9  C8  <0> d          -0.019   1.531   0.011  0.00  0.00     0.101 C 
ATOM     10  N3  <0> d           1.372   2.010  -0.000  0.00  0.00    -0.041 N 
ATOM     11  H1  <0> d           5.322   1.930  -2.266  0.00  0.00     0.087 H 
ATOM     12  H2  <0> d           3.723   2.989  -0.722  0.00  0.00     0.087 H 
ATOM     13  H3  <0> d           2.649  -1.366  -2.789  0.00  0.00     0.090 H 
ATOM     14  H6  <0> d           0.374  -1.259  -1.808  0.00  0.00     0.159 HD
ATOM     15  H7  <0> d          -1.024  -0.396  -0.056  0.00  0.00     0.066 H 
ATOM     16  H8  <0> d           0.487  -0.381   0.915  0.00  0.00     0.066 H 
ATOM     17  H9  <0> d          -0.551   1.896  -0.881  0.00  0.00     0.079 H 
ATOM     18  H10 <0> d          -0.534   1.886   0.915  0.00  0.00     0.079 H 
ATOM     19  H11 <0> d           1.720   1.875   1.034  0.00  0.00     0.284 HD
ATOM     20  H12 <0> d           1.294   3.084  -0.224  0.00  0.00     0.284 HD
ENDROOT
BRANCH   6  21
ATOM     21  N1  <0> d           4.999  -0.382  -3.499  0.00  0.00    -0.399 N 
ATOM     22  H4  <0> d           4.762  -1.353  -3.960  0.00  0.00     0.156 HD
ATOM     23  H5  <0> d           5.952   0.117  -3.726  0.00  0.00     0.156 HD
ENDBRANCH   6  21
TORSDOF 1
