REMARK  1 active torsions:
REMARK  status: ('A' for Active; 'I' for Inactive)
REMARK    1  A    between atoms: C1_1  and  C2_2 
REMARK       I    between atoms: C2_2  and  N1_4 
ROOT
ATOM      1  C2  <0> d          -2.946   2.532  -1.608  0.00  0.00     0.222 C 
ATOM      2  O1  <0> d          -4.026   2.864  -1.169  0.00  0.00    -0.273 OA
ATOM      3  N1  <0> d          -2.016   2.009  -0.784  0.00  0.00    -0.289 N 
ATOM      4  C3  <0> d          -2.209   1.800   0.655  0.00  0.00     0.006 C 
ATOM      5  C4  <0> d          -0.787   1.610   1.239  0.00  0.00    -0.042 C 
ATOM      6  C5  <0> d          -0.013   1.086   0.008  0.00  0.00     0.011 C 
ATOM      7  C6  <0> d          -0.793   1.611  -1.176  0.00  0.00     0.226 C 
ATOM      8  O2  <0> d          -0.377   1.665  -2.314  0.00  0.00    -0.273 OA
ATOM      9  H4  <0> d          -2.707   2.679   1.090  0.00  0.00     0.065 H 
ATOM     10  H5  <0> d          -2.832   0.908   0.816  0.00  0.00     0.065 H 
ATOM     11  H6  <0> d          -0.411   2.575   1.611  0.00  0.00     0.036 H 
ATOM     12  H7  <0> d          -0.825   0.888   2.068  0.00  0.00     0.036 H 
ATOM     13  H8  <0> d           1.016   1.475   0.029  0.00  0.00     0.047 H 
ATOM     14  H9  <0> d           0.011  -0.014   0.030  0.00  0.00     0.047 H 
ENDROOT
BRANCH   1  15
ATOM     15  C1  <0> d          -2.643   2.703  -3.074  0.00  0.00    -0.002 C 
ATOM     16  H1  <0> d          -1.623   2.348  -3.282  0.00  0.00     0.040 H 
ATOM     17  H2  <0> d          -2.724   3.767  -3.343  0.00  0.00     0.040 H 
ATOM     18  H3  <0> d          -3.362   2.119  -3.668  0.00  0.00     0.040 H 
ENDBRANCH   1  15
TORSDOF 1
