REMARK  2 active torsions:
REMARK  status: ('A' for Active; 'I' for Inactive)
REMARK    1  A    between atoms: C6_6  and  C7_8 
REMARK    2  A    between atoms: C7_8  and  O2_9 
ROOT
ATOM      1  C1  <0> d          -0.017   1.381   0.010  0.00  0.00    -0.063 A 
ATOM      2  C2  <0> d           1.176   2.083   0.002  0.00  0.00    -0.047 A 
ATOM      3  C3  <0> d           2.365   1.363  -0.013  0.00  0.00     0.104 A 
ATOM      4  C4  <0> d           2.307  -0.042  -0.020  0.00  0.00     0.092 A 
ATOM      5  C5  <0> d           3.705  -0.487  -0.036  0.00  0.00    -0.022 A 
ATOM      6  C6  <0> d           4.454   0.626  -0.037  0.00  0.00     0.079 A 
ATOM      7  O1  <0> d           3.666   1.714  -0.024  0.00  0.00    -0.310 OA
ATOM      8  N1  <0> d           1.138  -0.670  -0.013  0.00  0.00    -0.258 NA
ATOM      9  C8  <0> d           0.002  -0.004   0.002  0.00  0.00     0.003 A 
ATOM     10  H1  <0> d          -0.958   1.911   0.026  0.00  0.00     0.085 H 
ATOM     11  H2  <0> d           1.183   3.163   0.007  0.00  0.00     0.087 H 
ATOM     12  H3  <0> d           4.061  -1.506  -0.045  0.00  0.00     0.091 H 
ATOM     13  H7  <0> d          -0.931  -0.547   0.008  0.00  0.00     0.114 H 
ENDROOT
BRANCH   6  14
ATOM     14  C7  <0> d           5.960   0.652  -0.051  0.00  0.00     0.061 C 
ATOM     15  H4  <0> d           6.313   1.546   0.464  0.00  0.00     0.084 H 
ATOM     16  H5  <0> d           6.344  -0.234   0.454  0.00  0.00     0.084 H 
BRANCH  14  17
ATOM     17  O2  <0> d           6.424   0.668  -1.403  0.00  0.00    -0.394 OA
ATOM     18  H6  <0> d           7.387   0.685  -1.488  0.00  0.00     0.209 HD
ENDBRANCH  14  17
ENDBRANCH   6  14
TORSDOF 2
