REMARK  4 active torsions:
REMARK  status: ('A' for Active; 'I' for Inactive)
REMARK    1  A    between atoms: C1_1  and  C2_2 
REMARK    2  A    between atoms: C2_2  and  C3_3 
REMARK    3  A    between atoms: C3_3  and  C4_4 
REMARK    4  A    between atoms: C5_5  and  C6_6 
ROOT
ATOM      1  C6  <0> d           0.797  -4.534   1.219  0.00  0.00    -0.026 C 
ATOM      2  C7  <0> d           0.812  -5.707   1.213  0.00  0.00    -0.141 C 
ATOM      3  H8  <0> d           0.827  -6.757   1.207  0.00  0.00     0.167 H 
ENDROOT
BRANCH   1   4
ATOM      4  C5  <0> d           0.778  -3.157   1.227  0.00  0.00    -0.016 C 
ATOM      5  C4  <0> d           0.762  -1.983   1.233  0.00  0.00    -0.093 C 
BRANCH   5   6
ATOM      6  C3  <0> d           0.742  -0.511   1.242  0.00  0.00    -0.009 C 
ATOM      7  H6  <0> d           1.765  -0.134   1.234  0.00  0.00     0.051 H 
ATOM      8  H7  <0> d           0.232  -0.159   2.138  0.00  0.00     0.051 H 
BRANCH   6   9
ATOM      9  C2  <0> d           0.002  -0.004   0.002  0.00  0.00    -0.059 C 
ATOM     10  H4  <0> d          -1.020  -0.381   0.010  0.00  0.00     0.033 H 
ATOM     11  H5  <0> d           0.512  -0.356  -0.895  0.00  0.00     0.033 H 
BRANCH   9  12
ATOM     12  C1  <0> d          -0.019   1.526   0.010  0.00  0.00    -0.076 C 
ATOM     13  H1  <0> d           1.004   1.903   0.003  0.00  0.00     0.027 H 
ATOM     14  H2  <0> d          -0.546   1.887  -0.873  0.00  0.00     0.027 H 
ATOM     15  H3  <0> d          -0.529   1.877   0.907  0.00  0.00     0.027 H 
ENDBRANCH   9  12
ENDBRANCH   6   9
ENDBRANCH   5   6
ENDBRANCH   1   4
TORSDOF 4
