REMARK  1 active torsions:
REMARK  status: ('A' for Active; 'I' for Inactive)
REMARK    1  A    between atoms: C7_11  and  O1_12 
ROOT
ATOM      1  C1  <0> d          -2.388  -0.042   0.026  0.00  0.00    -0.045 A 
ATOM      2  C2  <0> d          -1.201  -0.716   0.010  0.00  0.00    -0.064 A 
ATOM      3  C3  <0> d           0.002  -0.004   0.002  0.00  0.00     0.046 A 
ATOM      4  C4  <0> d          -0.017   1.404   0.010  0.00  0.00     0.067 A 
ATOM      5  C5  <0> d          -1.239   2.072   0.030  0.00  0.00    -0.018 A 
ATOM      6  C6  <0> d          -2.413   1.349   0.033  0.00  0.00     0.118 A 
ATOM      7  F1  <0> d          -3.598   1.998   0.049  0.00  0.00    -0.206 F 
ATOM      8  N1  <0> d           1.290   1.818  -0.001  0.00  0.00    -0.275 N 
ATOM      9  H1  <0> d           1.596   2.770   0.002  0.00  0.00     0.189 HD
ATOM     10  N2  <0> d           2.126   0.697  -0.015  0.00  0.00    -0.148 NA
ATOM     11  C7  <0> d           1.412  -0.395  -0.013  0.00  0.00     0.194 A 
ATOM     12  H2  <0> d          -3.316  -0.593   0.032  0.00  0.00     0.088 H 
ATOM     13  H3  <0> d          -1.192  -1.796   0.004  0.00  0.00     0.085 H 
ATOM     14  H4  <0> d          -1.266   3.152   0.037  0.00  0.00     0.091 H 
ENDROOT
BRANCH  11  15
ATOM     15  O1  <0> d           1.891  -1.667  -0.025  0.00  0.00    -0.343 OA
ATOM     16  H5  <0> d           2.891  -1.646  -0.034  0.00  0.00     0.219 HD
ENDBRANCH  11  15
TORSDOF 1
