REMARK  4 active torsions:
REMARK  status: ('A' for Active; 'I' for Inactive)
REMARK    1  A    between atoms: C1_1  and  C2_2 
REMARK    2  A    between atoms: C3_3  and  C4_4 
REMARK    3  A    between atoms: C4_4  and  C5_6 
REMARK    4  A    between atoms: C4_4  and  N1_7 
ROOT
ATOM      1  N1  <0> d           2.125   0.070   1.217  0.00  0.00     0.100 N 
ATOM      2  C6  <0> d           0.772  -0.505   1.227  0.00  0.00     0.134 C 
ATOM      3  C7  <0> d           0.002  -0.004   0.002  0.00  0.00     0.044 C 
ATOM      4  O1  <0> d          -0.017   1.426   0.010  0.00  0.00    -0.388 OA
ATOM      5  C8  <0> d           1.284   2.019   0.001  0.00  0.00     0.044 C 
ATOM      6  C9  <0> d           2.067   1.539   1.225  0.00  0.00     0.134 C 
ATOM      7  H10 <0> d           0.840  -1.603   1.196  0.00  0.00     0.083 H 
ATOM      8  H11 <0> d           0.248  -0.196   2.143  0.00  0.00     0.083 H 
ATOM      9  H12 <0> d           0.497  -0.361  -0.913  0.00  0.00     0.077 H 
ATOM     10  H13 <0> d          -1.029  -0.387   0.035  0.00  0.00     0.077 H 
ATOM     11  H14 <0> d           1.815   1.724  -0.916  0.00  0.00     0.077 H 
ATOM     12  H15 <0> d           1.187   3.115   0.031  0.00  0.00     0.077 H 
ATOM     13  H16 <0> d           1.564   1.881   2.142  0.00  0.00     0.083 H 
ATOM     14  H17 <0> d           3.088   1.946   1.193  0.00  0.00     0.083 H 
ENDROOT
BRANCH   1  15
ATOM     15  C4  <0> d           2.918  -0.432   2.348  0.00  0.00     0.147 C 
ATOM     16  H1  <0> d           2.916  -1.531   2.296  0.00  0.00     0.094 H 
BRANCH  15  17
ATOM     17  C3  <0> d           4.331   0.081   2.237  0.00  0.00    -0.076 C 
ATOM     18  C2  <0> d           5.318  -0.758   2.044  0.00  0.00    -0.108 C 
ATOM     19  H5  <0> d           5.117  -1.836   1.962  0.00  0.00     0.075 H 
ATOM     20  H6  <0> d           4.533   1.159   2.319  0.00  0.00     0.079 H 
BRANCH  18  21
ATOM     21  C1  <0> d           6.731  -0.245   1.933  0.00  0.00    -0.060 C 
ATOM     22  H2  <0> d           7.417  -1.091   1.773  0.00  0.00     0.032 H 
ATOM     23  H3  <0> d           7.005   0.279   2.861  0.00  0.00     0.032 H 
ATOM     24  H4  <0> d           6.803   0.451   1.084  0.00  0.00     0.032 H 
ENDBRANCH  18  21
ENDBRANCH  15  17
BRANCH  15  25
ATOM     25  C5  <0> d           2.300   0.055   3.660  0.00  0.00    -0.044 C 
ATOM     26  H7  <0> d           1.269  -0.319   3.741  0.00  0.00     0.030 H 
ATOM     27  H8  <0> d           2.293   1.155   3.676  0.00  0.00     0.030 H 
ATOM     28  H9  <0> d           2.894  -0.320   4.507  0.00  0.00     0.030 H 
ENDBRANCH  15  25
ENDBRANCH   1  15
TORSDOF 4
