REMARK  3 active torsions:
REMARK  status: ('A' for Active; 'I' for Inactive)
REMARK    1  A    between atoms: C1_1  and  C2_2 
REMARK    2  A    between atoms: C5_5  and  C8_8 
REMARK    3  A    between atoms: C5_5  and  C9_9 
ROOT
ATOM      1  C2  <0> d           0.002  -0.004   0.002  0.00  0.00    -0.087 C 
ATOM      2  C3  <0> d           0.005  -0.605  -1.145  0.00  0.00    -0.100 C 
ATOM      3  C4  <0> d           0.034  -2.096  -1.313  0.00  0.00    -0.040 C 
ATOM      4  C5  <0> d          -0.364  -2.781  -0.004  0.00  0.00    -0.024 C 
ATOM      5  C6  <0> d           0.460  -2.168   1.135  0.00  0.00    -0.052 C 
ATOM      6  C7  <0> d           0.024  -0.715   1.324  0.00  0.00    -0.044 C 
ATOM      7  H4  <0> d          -0.016   0.005  -2.036  0.00  0.00     0.077 H 
ATOM      8  H5  <0> d          -0.664  -2.384  -2.098  0.00  0.00     0.040 H 
ATOM      9  H6  <0> d           1.040  -2.408  -1.593  0.00  0.00     0.040 H 
ATOM     10  H7  <0> d           0.286  -2.726   2.055  0.00  0.00     0.035 H 
ATOM     11  H8  <0> d           1.519  -2.199   0.879  0.00  0.00     0.035 H 
ATOM     12  H9  <0> d           0.721  -0.210   1.993  0.00  0.00     0.039 H 
ATOM     13  H10 <0> d          -0.974  -0.695   1.761  0.00  0.00     0.039 H 
ENDROOT
BRANCH   4  14
ATOM     14  C8  <0> d          -1.854  -2.559   0.262  0.00  0.00    -0.066 C 
ATOM     15  H11 <0> d          -2.436  -2.979  -0.558  0.00  0.00     0.028 H 
ATOM     16  H12 <0> d          -2.134  -3.048   1.194  0.00  0.00     0.028 H 
ATOM     17  H13 <0> d          -2.054  -1.490   0.338  0.00  0.00     0.028 H 
ENDBRANCH   4  14
BRANCH   4  18
ATOM     18  C9  <0> d          -0.077  -4.258  -0.098  0.00  0.00    -0.104 C 
ATOM     19  C10 <0> d           0.438  -4.756  -1.195  0.00  0.00    -0.124 C 
ATOM     20  H15 <0> d           0.656  -4.109  -2.031  0.00  0.00     0.066 H 
ATOM     21  H16 <0> d           0.643  -5.815  -1.262  0.00  0.00     0.066 H 
ATOM     22  H14 <0> d          -0.296  -4.905   0.739  0.00  0.00     0.076 H 
ENDBRANCH   4  18
BRANCH   1  23
ATOM     23  C1  <0> d          -0.018   1.503   0.010  0.00  0.00    -0.055 C 
ATOM     24  H1  <0> d           1.004   1.880   0.003  0.00  0.00     0.033 H 
ATOM     25  H2  <0> d          -0.545   1.864  -0.873  0.00  0.00     0.033 H 
ATOM     26  H3  <0> d          -0.529   1.854   0.907  0.00  0.00     0.033 H 
ENDBRANCH   1  23
TORSDOF 3
