REMARK  1 active torsions:
REMARK  status: ('A' for Active; 'I' for Inactive)
REMARK    1  A    between atoms: C1_1  and  C2_2 
ROOT
ATOM      1  C2  <0> d           0.002  -0.004   0.002  0.00  0.00    -0.004 C 
ATOM      2  H1  <0> d          -1.008  -0.412   0.022  0.00  0.00     0.057 H 
ATOM      3  C3  <0> d           0.806  -0.550  -1.199  0.00  0.00    -0.028 C 
ATOM      4  C4  <0> d           2.259  -0.764  -0.850  0.00  0.00    -0.040 A 
ATOM      5  C5  <0> d           3.326  -0.857  -1.747  0.00  0.00    -0.075 A 
ATOM      6  C6  <0> d           4.612  -1.070  -1.304  0.00  0.00    -0.082 A 
ATOM      7  C7  <0> d           4.884  -1.199   0.046  0.00  0.00    -0.082 A 
ATOM      8  C8  <0> d           3.846  -1.103   0.953  0.00  0.00    -0.066 A 
ATOM      9  C9  <0> d           2.557  -0.880   0.505  0.00  0.00     0.007 A 
ATOM     10  S1  <0> d           1.022  -0.669   1.383  0.00  0.00    -0.125 SA
ATOM     11  H5  <0> d           0.374  -1.499  -1.515  0.00  0.00     0.041 H 
ATOM     12  H6  <0> d           0.740   0.160  -2.023  0.00  0.00     0.041 H 
ATOM     13  H7  <0> d           3.139  -0.761  -2.806  0.00  0.00     0.084 H 
ATOM     14  H8  <0> d           5.418  -1.137  -2.019  0.00  0.00     0.083 H 
ATOM     15  H9  <0> d           5.894  -1.372   0.387  0.00  0.00     0.083 H 
ATOM     16  H10 <0> d           4.041  -1.201   2.011  0.00  0.00     0.085 H 
ENDROOT
BRANCH   1  17
ATOM     17  C1  <0> d          -0.019   1.526   0.010  0.00  0.00    -0.064 C 
ATOM     18  H2  <0> d           1.004   1.903   0.003  0.00  0.00     0.029 H 
ATOM     19  H3  <0> d          -0.546   1.887  -0.873  0.00  0.00     0.029 H 
ATOM     20  H4  <0> d          -0.529   1.877   0.907  0.00  0.00     0.029 H 
ENDBRANCH   1  17
TORSDOF 1
