REMARK  2 active torsions:
REMARK  status: ('A' for Active; 'I' for Inactive)
REMARK    1  A    between atoms: C3_3  and  C6_9 
REMARK    2  A    between atoms: C4_5  and  O1_8 
REMARK       I    between atoms: C6_9  and  N1_11 
ROOT
ATOM      1  C1  <0> d          -0.019   1.545   0.011  0.00  0.00    -0.062 C 
ATOM      2  C2  <0> d           1.487   1.907  -0.002  0.00  0.00    -0.051 C 
ATOM      3  C3  <0> d           2.139   0.844   0.906  0.00  0.00     0.048 C 
ATOM      4  H1  <0> d           2.249   1.234   1.918  0.00  0.00     0.058 H 
ATOM      5  C4  <0> d           1.195  -0.371   0.908  0.00  0.00     0.047 C 
ATOM      6  H2  <0> d           1.711  -1.246   0.511  0.00  0.00     0.084 H 
ATOM      7  C5  <0> d           0.002  -0.004   0.002  0.00  0.00    -0.040 C 
ATOM      8  H3  <0> d          -0.499   1.919   0.914  0.00  0.00     0.033 H 
ATOM      9  H4  <0> d          -0.516   1.929  -0.880  0.00  0.00     0.033 H 
ATOM     10  H5  <0> d           1.887   1.842  -1.014  0.00  0.00     0.034 H 
ATOM     11  H6  <0> d           1.643   2.905   0.407  0.00  0.00     0.034 H 
ATOM     12  H7  <0> d          -0.926  -0.400   0.414  0.00  0.00     0.036 H 
ATOM     13  H8  <0> d           0.162  -0.378  -1.009  0.00  0.00     0.036 H 
ENDROOT
BRANCH   3  14
ATOM     14  C6  <0> d           3.486   0.451   0.355  0.00  0.00     0.222 C 
ATOM     15  O2  <0> d           3.693  -0.695   0.018  0.00  0.00    -0.273 OA
ATOM     16  N1  <0> d           4.461   1.374   0.237  0.00  0.00    -0.370 N 
ATOM     17  H10 <0> d           4.296   2.291   0.507  0.00  0.00     0.159 HD
ATOM     18  H11 <0> d           5.328   1.122  -0.117  0.00  0.00     0.159 HD
ENDBRANCH   3  14
BRANCH   5  19
ATOM     19  O1  <0> d           0.739  -0.634   2.237  0.00  0.00    -0.395 OA
ATOM     20  H9  <0> d           0.140  -1.390   2.305  0.00  0.00     0.210 HD
ENDBRANCH   5  19
TORSDOF 2
