REMARK  2 active torsions:
REMARK  status: ('A' for Active; 'I' for Inactive)
REMARK    1  A    between atoms: C1_1  and  C2_2 
REMARK    2  A    between atoms: C4_4  and  O1_11 
ROOT
ATOM      1  C2  <0> d           1.146   1.774   0.001  0.00  0.00     0.038 A 
ATOM      2  C3  <0> d          -0.013   1.076   0.008  0.00  0.00    -0.009 A 
ATOM      3  C4  <0> d          -1.239   1.770   0.018  0.00  0.00     0.166 A 
ATOM      4  N1  <0> d          -1.253   3.087   0.029  0.00  0.00    -0.205 NA
ATOM      5  C5  <0> d          -0.108   3.785   0.022  0.00  0.00     0.155 A 
ATOM      6  N2  <0> d           1.102   3.140   0.008  0.00  0.00    -0.220 N 
ATOM      7  N3  <0> d           2.104   4.117   0.004  0.00  0.00    -0.178 NA
ATOM      8  C6  <0> d           1.540   5.303   0.015  0.00  0.00     0.026 A 
ATOM      9  C7  <0> d           0.161   5.147   0.027  0.00  0.00    -0.018 A 
ATOM     10  H4  <0> d           0.002  -0.004   0.002  0.00  0.00     0.093 H 
ATOM     11  H5  <0> d           2.064   6.247   0.015  0.00  0.00     0.117 H 
ATOM     12  H6  <0> d          -0.571   5.941   0.038  0.00  0.00     0.091 H 
ENDROOT
BRANCH   1  13
ATOM     13  C1  <0> d           2.469   1.054  -0.015  0.00  0.00    -0.035 C 
ATOM     14  H1  <0> d           2.779   0.885  -1.046  0.00  0.00     0.035 H 
ATOM     15  H2  <0> d           3.219   1.660   0.495  0.00  0.00     0.035 H 
ATOM     16  H3  <0> d           2.368   0.096   0.495  0.00  0.00     0.035 H 
ENDBRANCH   1  13
BRANCH   3  17
ATOM     17  O1  <0> d          -2.406   1.081   0.019  0.00  0.00    -0.345 OA
ATOM     18  H7  <0> d          -2.740   0.877   0.903  0.00  0.00     0.219 HD
ENDBRANCH   3  17
TORSDOF 2
