REMARK  3 active torsions:
REMARK  status: ('A' for Active; 'I' for Inactive)
REMARK    1  A    between atoms: C1_1  and  C2_2 
REMARK    2  A    between atoms: C2_2  and  C3_3 
REMARK    3  A    between atoms: C2_2  and  C4_4 
ROOT
ATOM      1  C4  <0> d           2.302  -0.088  -0.848  0.00  0.00     0.092 C 
ATOM      2  H1  <0> d           3.151  -0.648  -0.454  0.00  0.00     0.088 H 
ATOM      3  C5  <0> d           2.398   1.336  -0.388  0.00  0.00     0.241 C 
ATOM      4  O1  <0> d           3.487   1.868  -0.367  0.00  0.00    -0.271 OA
ATOM      5  N1  <0> d           1.331   2.042   0.000  0.00  0.00    -0.351 N 
ATOM      6  C6  <0> d          -0.018   1.495   0.010  0.00  0.00     0.069 C 
ATOM      7  C7  <0> d           0.002  -0.004   0.002  0.00  0.00     0.236 C 
ATOM      8  O2  <0> d          -0.989  -0.601   0.367  0.00  0.00    -0.272 OA
ATOM      9  N2  <0> d           1.067  -0.710  -0.391  0.00  0.00    -0.346 N 
ATOM     10  H9  <0> d           1.462   2.959   0.288  0.00  0.00     0.163 HD
ATOM     11  H10 <0> d          -0.554   1.849  -0.871  0.00  0.00     0.078 H 
ATOM     12  H11 <0> d          -0.537   1.840   0.905  0.00  0.00     0.078 H 
ATOM     13  H12 <0> d           1.015  -1.678  -0.371  0.00  0.00     0.163 HD
ENDROOT
BRANCH   1  14
ATOM     14  C2  <0> d           2.345  -0.123  -2.377  0.00  0.00    -0.033 C 
ATOM     15  H5  <0> d           1.490   0.422  -2.777  0.00  0.00     0.042 H 
BRANCH  14  16
ATOM     16  C1  <0> d           3.640   0.529  -2.866  0.00  0.00    -0.071 C 
ATOM     17  H2  <0> d           3.671   0.504  -3.955  0.00  0.00     0.028 H 
ATOM     18  H3  <0> d           3.678   1.563  -2.525  0.00  0.00     0.028 H 
ATOM     19  H4  <0> d           4.495  -0.017  -2.466  0.00  0.00     0.028 H 
ENDBRANCH  14  16
BRANCH  14  20
ATOM     20  C3  <0> d           2.293  -1.575  -2.855  0.00  0.00    -0.071 C 
ATOM     21  H6  <0> d           1.370  -2.040  -2.507  0.00  0.00     0.028 H 
ATOM     22  H7  <0> d           2.323  -1.600  -3.945  0.00  0.00     0.028 H 
ATOM     23  H8  <0> d           3.148  -2.121  -2.455  0.00  0.00     0.028 H 
ENDBRANCH  14  20
ENDBRANCH   1  14
TORSDOF 3
