REMARK  2 active torsions:
REMARK  status: ('A' for Active; 'I' for Inactive)
REMARK    1  A    between atoms: C1_1  and  C2_2 
REMARK    2  A    between atoms: C6_6  and  C8_9 
ROOT
ATOM      1  C2  <0> d           0.002  -0.004   0.002  0.00  0.00    -0.023 A 
ATOM      2  C3  <0> d           0.006  -0.688  -1.199  0.00  0.00    -0.071 A 
ATOM      3  C4  <0> d           0.025  -2.070  -1.208  0.00  0.00    -0.044 A 
ATOM      4  C5  <0> d           0.040  -2.771  -0.014  0.00  0.00     0.125 A 
ATOM      5  C6  <0> d           0.036  -2.087   1.189  0.00  0.00     0.016 A 
ATOM      6  C7  <0> d           0.023  -0.702   1.197  0.00  0.00     0.131 A 
ATOM      7  F1  <0> d           0.025  -0.033   2.371  0.00  0.00    -0.205 F 
ATOM      8  F2  <0> d           0.058  -4.122  -0.023  0.00  0.00    -0.205 F 
ATOM      9  H4  <0> d          -0.007  -0.143  -2.131  0.00  0.00     0.084 H 
ATOM     10  H5  <0> d           0.028  -2.604  -2.147  0.00  0.00     0.088 H 
ENDROOT
BRANCH   1  11
ATOM     11  C1  <0> d          -0.018   1.503   0.010  0.00  0.00    -0.048 C 
ATOM     12  H1  <0> d           1.004   1.880   0.003  0.00  0.00     0.033 H 
ATOM     13  H2  <0> d          -0.545   1.864  -0.873  0.00  0.00     0.033 H 
ATOM     14  H3  <0> d          -0.529   1.854   0.907  0.00  0.00     0.033 H 
ENDBRANCH   1  11
BRANCH   5  15
ATOM     15  C8  <0> d           0.053  -2.848   2.490  0.00  0.00    -0.045 C 
ATOM     16  H6  <0> d           1.084  -3.018   2.799  0.00  0.00     0.033 H 
ATOM     17  H7  <0> d          -0.465  -2.271   3.256  0.00  0.00     0.033 H 
ATOM     18  H8  <0> d          -0.449  -3.807   2.356  0.00  0.00     0.033 H 
ENDBRANCH   5  15
TORSDOF 2
