REMARK  4 active torsions:
REMARK  status: ('A' for Active; 'I' for Inactive)
REMARK    1  A    between atoms: C1_1  and  C2_2 
REMARK    2  A    between atoms: C2_2  and  C3_3 
REMARK    3  A    between atoms: C3_3  and  C4_4 
REMARK    4  A    between atoms: C4_4  and  C5_6 
ROOT
ATOM      1  C4  <0> d          -0.729   1.579   1.267  0.00  0.00     0.027 C 
ATOM      2  H1  <0> d          -0.822   2.665   1.230  0.00  0.00     0.062 H 
ATOM      3  C6  <0> d           0.048   1.194   2.456  0.00  0.00     0.063 C 
ATOM      4  N1  <0> d           0.647   0.896   3.374  0.00  0.00    -0.197 NA
ENDROOT
BRANCH   1   5
ATOM      5  C3  <0> d          -0.013   1.086   0.008  0.00  0.00    -0.051 C 
ATOM      6  H7  <0> d           0.002  -0.004   0.002  0.00  0.00     0.034 H 
ATOM      7  H8  <0> d           1.010   1.463   0.000  0.00  0.00     0.034 H 
BRANCH   5   8
ATOM      8  C2  <0> d          -0.753   1.593  -1.232  0.00  0.00    -0.067 C 
ATOM      9  H5  <0> d          -1.775   1.215  -1.224  0.00  0.00     0.032 H 
ATOM     10  H6  <0> d          -0.767   2.683  -1.226  0.00  0.00     0.032 H 
BRANCH   8  11
ATOM     11  C1  <0> d          -0.037   1.099  -2.490  0.00  0.00    -0.076 C 
ATOM     12  H2  <0> d           0.986   1.476  -2.498  0.00  0.00     0.027 H 
ATOM     13  H3  <0> d          -0.022   0.009  -2.496  0.00  0.00     0.027 H 
ATOM     14  H4  <0> d          -0.564   1.460  -3.373  0.00  0.00     0.027 H 
ENDBRANCH   8  11
ENDBRANCH   5   8
ENDBRANCH   1   5
BRANCH   1  15
ATOM     15  C5  <0> d          -2.121   0.950   1.341  0.00  0.00    -0.061 C 
ATOM     16  H9  <0> d          -2.632   1.301   2.238  0.00  0.00     0.029 H 
ATOM     17  H10 <0> d          -2.697   1.235   0.460  0.00  0.00     0.029 H 
ATOM     18  H11 <0> d          -2.028  -0.136   1.378  0.00  0.00     0.029 H 
ENDBRANCH   1  15
TORSDOF 4
