REMARK  2 active torsions:
REMARK  status: ('A' for Active; 'I' for Inactive)
REMARK    1  A    between atoms: C1_1  and  N1_2 
REMARK    2  A    between atoms: C3_4  and  N3_7 
ROOT
ATOM      1  N1  <0> d           0.600   3.186   0.013  0.00  0.00    -0.283 N 
ATOM      2  C2  <0> d          -0.760   3.177   0.025  0.00  0.00     0.025 A 
ATOM      3  C3  <0> d          -1.161   1.881   0.017  0.00  0.00     0.062 A 
ATOM      4  C4  <0> d          -0.013   1.076   0.008  0.00  0.00     0.048 A 
ATOM      5  N2  <0> d           1.038   1.856   0.002  0.00  0.00    -0.183 NA
ATOM      6  H4  <0> d          -1.404   4.044   0.035  0.00  0.00     0.117 H 
ATOM      7  H5  <0> d           0.002  -0.004   0.002  0.00  0.00     0.121 H 
ENDROOT
BRANCH   1   8
ATOM      8  C1  <0> d           1.454   4.376   0.011  0.00  0.00     0.002 C 
ATOM      9  H1  <0> d           1.657   4.676  -1.018  0.00  0.00     0.059 H 
ATOM     10  H2  <0> d           0.949   5.188   0.533  0.00  0.00     0.059 H 
ATOM     11  H3  <0> d           2.394   4.149   0.514  0.00  0.00     0.059 H 
ENDBRANCH   1   8
BRANCH   3  12
ATOM     12  N3  <0> d          -2.493   1.425   0.021  0.00  0.00    -0.397 N 
ATOM     13  H6  <0> d          -2.680   0.473   0.017  0.00  0.00     0.156 HD
ATOM     14  H7  <0> d          -3.224   2.063   0.027  0.00  0.00     0.156 HD
ENDBRANCH   3  12
TORSDOF 2
