REMARK  3 active torsions:
REMARK  status: ('A' for Active; 'I' for Inactive)
REMARK    1  A    between atoms: C1_1  and  C2_2 
REMARK    2  A    between atoms: C6_7  and  C7_9 
REMARK    3  A    between atoms: C7_9  and  C8_10 
ROOT
ATOM      1  C2  <0> d           1.353  -0.422  -0.604  0.00  0.00    -0.054 C 
ATOM      2  H1  <0> d           1.923  -1.005   0.120  0.00  0.00     0.040 H 
ATOM      3  C3  <0> d           0.002  -0.004   0.002  0.00  0.00    -0.062 C 
ATOM      4  C4  <0> d          -0.019   1.538   0.011  0.00  0.00    -0.064 C 
ATOM      5  C5  <0> d           1.477   1.939  -0.002  0.00  0.00    -0.061 C 
ATOM      6  C6  <0> d           2.107   0.881  -0.942  0.00  0.00    -0.042 C 
ATOM      7  H2  <0> d           1.946   1.155  -1.985  0.00  0.00     0.041 H 
ATOM      8  H6  <0> d          -0.084  -0.384   1.020  0.00  0.00     0.033 H 
ATOM      9  H7  <0> d          -0.815  -0.385  -0.610  0.00  0.00     0.033 H 
ATOM     10  H8  <0> d          -0.522   1.918  -0.878  0.00  0.00     0.033 H 
ATOM     11  H9  <0> d          -0.505   1.908   0.913  0.00  0.00     0.033 H 
ATOM     12  H10 <0> d           1.606   2.942  -0.408  0.00  0.00     0.033 H 
ATOM     13  H11 <0> d           1.904   1.868   0.999  0.00  0.00     0.033 H 
ENDROOT
BRANCH   6  14
ATOM     14  C7  <0> d           3.601   0.726  -0.654  0.00  0.00     0.019 C 
ATOM     15  H12 <0> d           3.752   0.585   0.416  0.00  0.00     0.049 H 
ATOM     16  H13 <0> d           3.987  -0.140  -1.193  0.00  0.00     0.049 H 
BRANCH  14  17
ATOM     17  C8  <0> d           4.331   1.964  -1.107  0.00  0.00     0.172 C 
ATOM     18  O1  <0> d           3.719   2.878  -1.608  0.00  0.00    -0.648 OA
ATOM     19  O2  <0> d           5.662   2.053  -0.953  0.00  0.00    -0.648 OA
ENDBRANCH  14  17
ENDBRANCH   6  14
BRANCH   1  20
ATOM     20  C1  <0> d           1.127  -1.243  -1.875  0.00  0.00    -0.073 C 
ATOM     21  H3  <0> d           0.556  -0.652  -2.592  0.00  0.00     0.028 H 
ATOM     22  H4  <0> d           2.089  -1.512  -2.310  0.00  0.00     0.028 H 
ATOM     23  H5  <0> d           0.573  -2.149  -1.628  0.00  0.00     0.028 H 
ENDBRANCH   1  20
TORSDOF 3
