REMARK  7 active torsions:
REMARK  status: ('A' for Active; 'I' for Inactive)
REMARK    1  A    between atoms: C1_1  and  C2_2 
REMARK    2  A    between atoms: C2_2  and  C3_3 
REMARK    3  A    between atoms: C2_2  and  C4_4 
REMARK    4  A    between atoms: C4_4  and  N1_5 
REMARK       I    between atoms: N1_5  and  C5_6 
REMARK       I    between atoms: C5_6  and  N2_8 
REMARK    5  A    between atoms: N2_8  and  C6_9 
REMARK    6  A    between atoms: C6_9  and  C7_10 
REMARK    7  A    between atoms: C6_9  and  C8_11 
ROOT
ATOM      1  N1  <0> d          -1.416  -1.993  -0.116  0.00  0.00    -0.343 N 
ATOM      2  C5  <0> d          -2.575  -2.682  -0.130  0.00  0.00     0.316 C 
ATOM      3  O1  <0> d          -3.634  -2.092  -0.036  0.00  0.00    -0.247 OA
ATOM      4  N2  <0> d          -2.559  -4.024  -0.248  0.00  0.00    -0.339 N 
ATOM      5  H10 <0> d          -0.572  -2.463  -0.190  0.00  0.00     0.164 HD
ATOM      6  H11 <0> d          -1.714  -4.495  -0.323  0.00  0.00     0.164 HD
ENDROOT
BRANCH   1   7
ATOM      7  C4  <0> d          -1.433  -0.534   0.013  0.00  0.00    -0.001 C 
ATOM      8  H8  <0> d          -1.916  -0.257   0.950  0.00  0.00     0.064 H 
ATOM      9  H9  <0> d          -1.986  -0.102  -0.821  0.00  0.00     0.064 H 
BRANCH   7  10
ATOM     10  C2  <0> d           0.002  -0.004   0.002  0.00  0.00    -0.046 C 
ATOM     11  H4  <0> d           0.512  -0.356  -0.895  0.00  0.00     0.041 H 
BRANCH  10  12
ATOM     12  C1  <0> d          -0.019   1.526   0.010  0.00  0.00    -0.072 C 
ATOM     13  H1  <0> d           1.004   1.903   0.003  0.00  0.00     0.028 H 
ATOM     14  H2  <0> d          -0.546   1.887  -0.873  0.00  0.00     0.028 H 
ATOM     15  H3  <0> d          -0.529   1.877   0.907  0.00  0.00     0.028 H 
ENDBRANCH  10  12
BRANCH  10  16
ATOM     16  C3  <0> d           0.742  -0.511   1.242  0.00  0.00    -0.072 C 
ATOM     17  H5  <0> d           0.757  -1.601   1.236  0.00  0.00     0.028 H 
ATOM     18  H6  <0> d           1.765  -0.134   1.234  0.00  0.00     0.028 H 
ATOM     19  H7  <0> d           0.232  -0.159   2.138  0.00  0.00     0.028 H 
ENDBRANCH  10  16
ENDBRANCH   7  10
ENDBRANCH   1   7
BRANCH   4  20
ATOM     20  C6  <0> d          -3.818  -4.773  -0.263  0.00  0.00     0.007 C 
ATOM     21  H12 <0> d          -4.583  -4.187  -0.773  0.00  0.00     0.071 H 
BRANCH  20  22
ATOM     22  C7  <0> d          -3.615  -6.098  -1.000  0.00  0.00    -0.058 C 
ATOM     23  H13 <0> d          -2.850  -6.684  -0.489  0.00  0.00     0.030 H 
ATOM     24  H14 <0> d          -4.552  -6.655  -1.011  0.00  0.00     0.030 H 
ATOM     25  H15 <0> d          -3.297  -5.900  -2.023  0.00  0.00     0.030 H 
ENDBRANCH  20  22
BRANCH  20  26
ATOM     26  C8  <0> d          -4.264  -5.051   1.174  0.00  0.00    -0.058 C 
ATOM     27  H16 <0> d          -5.201  -5.608   1.163  0.00  0.00     0.030 H 
ATOM     28  H17 <0> d          -3.499  -5.637   1.684  0.00  0.00     0.030 H 
ATOM     29  H18 <0> d          -4.409  -4.107   1.699  0.00  0.00     0.030 H 
ENDBRANCH  20  26
ENDBRANCH   4  20
TORSDOF 7
