REMARK  2 active torsions:
REMARK  status: ('A' for Active; 'I' for Inactive)
REMARK    1  A    between atoms: C1_1  and  C2_2 
REMARK    2  A    between atoms: C9_11  and  C10_13 
ROOT
ATOM      1  C2  <0> d          -0.797   1.615  -1.204  0.00  0.00    -0.011 A 
ATOM      2  H1  <0> d          -1.172   0.787  -1.806  0.00  0.00     0.050 H 
ATOM      3  C3  <0> d          -1.948   2.392  -0.598  0.00  0.00    -0.026 A 
ATOM      4  C4  <0> d          -2.982   3.090  -1.193  0.00  0.00    -0.074 A 
ATOM      5  C5  <0> d          -3.926   3.729  -0.412  0.00  0.00    -0.082 A 
ATOM      6  C6  <0> d          -3.835   3.670   0.966  0.00  0.00    -0.081 A 
ATOM      7  C7  <0> d          -2.805   2.975   1.564  0.00  0.00    -0.057 A 
ATOM      8  C8  <0> d          -1.846   2.326   0.782  0.00  0.00     0.035 A 
ATOM      9  N1  <0> d          -0.738   1.578   1.182  0.00  0.00    -0.385 N 
ATOM     10  C9  <0> d          -0.013   1.086   0.008  0.00  0.00     0.013 A 
ATOM     11  H2  <0> d           0.002  -0.004   0.002  0.00  0.00     0.072 H 
ATOM     12  H6  <0> d          -3.052   3.135  -2.269  0.00  0.00     0.084 H 
ATOM     13  H7  <0> d          -4.735   4.274  -0.878  0.00  0.00     0.083 H 
ATOM     14  H8  <0> d          -4.573   4.169   1.577  0.00  0.00     0.083 H 
ATOM     15  H9  <0> d          -2.739   2.932   2.641  0.00  0.00     0.086 H 
ATOM     16  H10 <0> d          -0.485   1.409   2.103  0.00  0.00     0.160 HD
ENDROOT
BRANCH   1  17
ATOM     17  C1  <0> d           0.085   2.536  -2.050  0.00  0.00    -0.067 C 
ATOM     18  H3  <0> d           0.954   1.982  -2.404  0.00  0.00     0.028 H 
ATOM     19  H4  <0> d          -0.486   2.902  -2.903  0.00  0.00     0.028 H 
ATOM     20  H5  <0> d           0.415   3.380  -1.444  0.00  0.00     0.028 H 
ENDBRANCH   1  17
BRANCH  10  21
ATOM     21  C10 <0> d           1.415   1.635  -0.003  0.00  0.00    -0.057 C 
ATOM     22  H11 <0> d           1.951   1.271   0.874  0.00  0.00     0.030 H 
ATOM     23  H12 <0> d           1.926   1.301  -0.906  0.00  0.00     0.030 H 
ATOM     24  H13 <0> d           1.385   2.725   0.016  0.00  0.00     0.030 H 
ENDBRANCH  10  21
TORSDOF 2
