REMARK  0 active torsions:
REMARK  status: ('A' for Active; 'I' for Inactive)
ROOT
ATOM      1  C1  <0> d           1.161   2.038   0.002  0.00  0.00    -0.045 A 
ATOM      2  C2  <0> d          -0.016   1.315   0.009  0.00  0.00     0.005 A 
ATOM      3  N1  <0> d           0.002  -0.004   0.002  0.00  0.00    -0.249 NA
ATOM      4  C3  <0> d           1.134  -0.683  -0.012  0.00  0.00     0.127 A 
ATOM      5  C4  <0> d           2.352  -0.028  -0.020  0.00  0.00    -0.023 A 
ATOM      6  C5  <0> d           2.372   1.360  -0.013  0.00  0.00     0.038 A 
ATOM      7 Cl1  <0> d           3.876   2.227  -0.021  0.00  0.00    -0.084 Cl
ATOM      8 Cl2  <0> d           1.093  -2.419  -0.021  0.00  0.00    -0.062 Cl
ATOM      9  H1  <0> d           1.139   3.118   0.008  0.00  0.00     0.088 H 
ATOM     10  H2  <0> d          -0.962   1.835   0.017  0.00  0.00     0.114 H 
ATOM     11  H3  <0> d           3.275  -0.588  -0.032  0.00  0.00     0.091 H 
ENDROOT
TORSDOF 0
