REMARK  7 active torsions:
REMARK  status: ('A' for Active; 'I' for Inactive)
REMARK    1  A    between atoms: C1_1  and  C2_2 
REMARK    2  A    between atoms: C2_2  and  C3_4 
REMARK    3  A    between atoms: C2_2  and  C6_7 
REMARK    4  A    between atoms: C3_4  and  C4_5 
REMARK    5  A    between atoms: C7_8  and  C8_9 
REMARK    6  A    between atoms: C7_8  and  C9_10 
REMARK    7  A    between atoms: C9_10  and  O1_11 
ROOT
ATOM      1  C2  <0> d          -2.181   1.346  -1.100  0.00  0.00    -0.038 C 
ATOM      2  H1  <0> d          -2.289   0.263  -1.058  0.00  0.00     0.046 H 
ENDROOT
BRANCH   1   3
ATOM      3  C1  <0> d          -1.478   1.739  -2.401  0.00  0.00    -0.069 C 
ATOM      4  H2  <0> d          -0.492   1.275  -2.435  0.00  0.00     0.028 H 
ATOM      5  H3  <0> d          -2.070   1.400  -3.251  0.00  0.00     0.028 H 
ATOM      6  H4  <0> d          -1.370   2.823  -2.442  0.00  0.00     0.028 H 
ENDBRANCH   1   3
BRANCH   1   7
ATOM      7  C3  <0> d          -1.351   1.823   0.093  0.00  0.00    -0.044 C 
ATOM      8  H5  <0> d          -1.893   1.623   1.017  0.00  0.00     0.039 H 
ATOM      9  H6  <0> d          -1.168   2.894   0.004  0.00  0.00     0.039 H 
BRANCH   7  10
ATOM     10  C4  <0> d          -0.035   1.089   0.114  0.00  0.00    -0.111 C 
ATOM     11  C5  <0> d           1.090   1.760   0.124  0.00  0.00    -0.125 C 
ATOM     12  H8  <0> d           2.033   1.234   0.135  0.00  0.00     0.066 H 
ATOM     13  H9  <0> d           1.074   2.840   0.122  0.00  0.00     0.066 H 
ATOM     14  H7  <0> d          -0.019   0.009   0.117  0.00  0.00     0.075 H 
ENDBRANCH   7  10
ENDBRANCH   1   7
BRANCH   1  15
ATOM     15  C6  <0> d          -3.544   1.989  -1.052  0.00  0.00    -0.095 C 
ATOM     16  C7  <0> d          -4.621   1.244  -1.086  0.00  0.00    -0.064 C 
ATOM     17  H10 <0> d          -3.632   3.063  -0.989  0.00  0.00     0.077 H 
BRANCH  16  18
ATOM     18  C8  <0> d          -4.499  -0.258  -1.056  0.00  0.00    -0.053 C 
ATOM     19  H11 <0> d          -4.052  -0.568  -0.111  0.00  0.00     0.033 H 
ATOM     20  H12 <0> d          -5.489  -0.705  -1.153  0.00  0.00     0.033 H 
ATOM     21  H13 <0> d          -3.869  -0.588  -1.881  0.00  0.00     0.033 H 
ENDBRANCH  16  18
BRANCH  16  22
ATOM     22  C9  <0> d          -5.981   1.888  -1.155  0.00  0.00     0.036 C 
ATOM     23  H14 <0> d          -6.490   1.565  -2.063  0.00  0.00     0.081 H 
ATOM     24  H15 <0> d          -6.567   1.594  -0.285  0.00  0.00     0.081 H 
BRANCH  22  25
ATOM     25  O1  <0> d          -5.834   3.310  -1.173  0.00  0.00    -0.397 OA
ATOM     26  H16 <0> d          -6.672   3.791  -1.217  0.00  0.00     0.209 HD
ENDBRANCH  22  25
ENDBRANCH  16  22
ENDBRANCH   1  15
TORSDOF 7
