REMARK  6 active torsions:
REMARK  status: ('A' for Active; 'I' for Inactive)
REMARK    1  A    between atoms: C1_1  and  O1_2 
REMARK    2  A    between atoms: O1_2  and  C2_3 
REMARK    3  A    between atoms: C2_3  and  C3_5 
REMARK    4  A    between atoms: C3_5  and  O3_6 
REMARK    5  A    between atoms: O3_6  and  C4_7 
REMARK    6  A    between atoms: C4_7  and  C5_8 
ROOT
ATOM      1  O3  <0> d          -0.017   1.425   0.010  0.00  0.00    -0.381 OA
ENDROOT
BRANCH   1   2
ATOM      2  C3  <0> d           0.002  -0.004   0.002  0.00  0.00     0.099 C 
ATOM      3  H4  <0> d           0.534  -0.368   0.893  0.00  0.00     0.089 H 
ATOM      4  H5  <0> d           0.517  -0.359  -0.903  0.00  0.00     0.089 H 
BRANCH   2   5
ATOM      5  C2  <0> d          -1.412  -0.526   0.013  0.00  0.00     0.282 C 
ATOM      6  O2  <0> d          -2.341   0.247   0.026  0.00  0.00    -0.263 OA
BRANCH   5   7
ATOM      7  O1  <0> d          -1.639  -1.849   0.008  0.00  0.00    -0.325 OA
BRANCH   7   8
ATOM      8  C1  <0> d          -3.026  -2.279   0.019  0.00  0.00     0.013 C 
ATOM      9  H1  <0> d          -3.068  -3.378   0.013  0.00  0.00     0.067 H 
ATOM     10  H2  <0> d          -3.538  -1.888  -0.873  0.00  0.00     0.067 H 
ATOM     11  H3  <0> d          -3.521  -1.897   0.924  0.00  0.00     0.067 H 
ENDBRANCH   7   8
ENDBRANCH   5   7
ENDBRANCH   2   5
ENDBRANCH   1   2
BRANCH   1  12
ATOM     12  C4  <0> d           1.280   2.024   0.001  0.00  0.00     0.023 C 
ATOM     13  H6  <0> d           1.839   1.702   0.892  0.00  0.00     0.074 H 
ATOM     14  H7  <0> d           1.822   1.711  -0.904  0.00  0.00     0.074 H 
BRANCH  12  15
ATOM     15  C5  <0> d           1.139   3.547   0.010  0.00  0.00    -0.033 A 
ATOM     16  C7  <0> d           2.421   4.375   0.119  0.00  0.00    -0.059 A 
ATOM     17  C6  <0> d           1.659   4.313  -1.208  0.00  0.00    -0.059 A 
ATOM     18  H11 <0> d           2.291   5.152   0.886  0.00  0.00     0.033 H 
ATOM     19  H12 <0> d           3.258   3.719   0.399  0.00  0.00     0.033 H 
ATOM     20  H9  <0> d           1.868   3.605  -2.024  0.00  0.00     0.033 H 
ATOM     21  H10 <0> d           0.901   5.038  -1.536  0.00  0.00     0.033 H 
ATOM     22  H8  <0> d           0.186   3.513   0.559  0.00  0.00     0.043 H 
ENDBRANCH  12  15
ENDBRANCH   1  12
TORSDOF 6
