REMARK  2 active torsions:
REMARK  status: ('A' for Active; 'I' for Inactive)
REMARK    1  A    between atoms: C1_1  and  C2_2 
REMARK    2  A    between atoms: C3_3  and  N2_11 
ROOT
ATOM      1  C2  <0> d           1.215  -0.683  -0.014  0.00  0.00     0.003 A 
ATOM      2  C3  <0> d           0.002  -0.004   0.002  0.00  0.00     0.036 A 
ATOM      3  C4  <0> d          -0.017   1.382   0.010  0.00  0.00    -0.037 A 
ATOM      4  C5  <0> d           1.184   2.092   0.002  0.00  0.00     0.049 A 
ATOM      5  C6  <0> d           2.398   1.403  -0.013  0.00  0.00    -0.025 A 
ATOM      6  C7  <0> d           2.407   0.020  -0.021  0.00  0.00     0.126 A 
ATOM      7  F1  <0> d           3.582  -0.646  -0.036  0.00  0.00    -0.205 F 
ATOM      8  C8  <0> d           1.172   3.524   0.009  0.00  0.00     0.099 C 
ATOM      9  N1  <0> d           1.162   4.660   0.015  0.00  0.00    -0.191 NA
ATOM     10  H4  <0> d          -0.958   1.911   0.017  0.00  0.00     0.089 H 
ATOM     11  H5  <0> d           3.330   1.949  -0.019  0.00  0.00     0.090 H 
ENDROOT
BRANCH   2  12
ATOM     12  N2  <0> d          -1.198  -0.719   0.010  0.00  0.00    -0.399 N 
ATOM     13  H6  <0> d          -2.158  -0.181   0.022  0.00  0.00     0.156 HD
ATOM     14  H7  <0> d          -1.184  -1.819   0.003  0.00  0.00     0.156 HD
ENDBRANCH   2  12
BRANCH   1  15
ATOM     15  C1  <0> d           1.232  -2.190  -0.022  0.00  0.00    -0.046 C 
ATOM     16  H1  <0> d           0.199  -2.568  -0.014  0.00  0.00     0.033 H 
ATOM     17  H2  <0> d           1.763  -2.556   0.869  0.00  0.00     0.033 H 
ATOM     18  H3  <0> d           1.746  -2.546  -0.927  0.00  0.00     0.033 H 
ENDBRANCH   1  15
TORSDOF 2
