REMARK  5 active torsions:
REMARK  status: ('A' for Active; 'I' for Inactive)
REMARK    1  A    between atoms: C1_1  and  C2_2 
REMARK    2  A    between atoms: C2_2  and  N1_3 
REMARK       I    between atoms: N1_3  and  C3_4 
REMARK    3  A    between atoms: C3_4  and  C4_6 
REMARK    4  A    between atoms: C4_6  and  C5_7 
REMARK    5  A    between atoms: C5_7  and  C6_8 
ROOT
ATOM      1  N1  <0> d          -4.952   0.976   0.031  0.00  0.00    -0.361 N 
ATOM      2  C3  <0> d          -3.794   1.665   0.029  0.00  0.00     0.218 C 
ATOM      3  O1  <0> d          -3.811   2.878   0.036  0.00  0.00    -0.274 OA
ATOM      4  H6  <0> d          -4.939   0.006   0.025  0.00  0.00     0.162 HD
ENDROOT
BRANCH   2   5
ATOM      5  C4  <0> d          -2.479   0.930   0.019  0.00  0.00     0.018 C 
ATOM      6  H7  <0> d          -2.417   0.309  -0.875  0.00  0.00     0.047 H 
ATOM      7  H8  <0> d          -2.408   0.299   0.905  0.00  0.00     0.047 H 
BRANCH   5   8
ATOM      8  C5  <0> d          -1.329   1.940   0.019  0.00  0.00     0.024 C 
ATOM      9  H9  <0> d          -1.391   2.561   0.913  0.00  0.00     0.049 H 
ATOM     10  H10 <0> d          -1.400   2.570  -0.867  0.00  0.00     0.049 H 
BRANCH   8  11
ATOM     11  C6  <0> d          -0.014   1.204   0.009  0.00  0.00     0.172 C 
ATOM     12  O2  <0> d           0.002  -0.004   0.002  0.00  0.00    -0.648 OA
ATOM     13  O3  <0> d           1.139   1.891   0.001  0.00  0.00    -0.648 OA
ENDBRANCH   8  11
ENDBRANCH   5   8
ENDBRANCH   2   5
BRANCH   1  14
ATOM     14  C2  <0> d          -6.231   1.691   0.041  0.00  0.00    -0.008 C 
ATOM     15  H4  <0> d          -6.293   2.312   0.934  0.00  0.00     0.063 H 
ATOM     16  H5  <0> d          -6.301   2.322  -0.846  0.00  0.00     0.063 H 
BRANCH  14  17
ATOM     17  C1  <0> d          -7.380   0.681   0.041  0.00  0.00    -0.061 C 
ATOM     18  H1  <0> d          -7.318   0.060  -0.853  0.00  0.00     0.029 H 
ATOM     19  H2  <0> d          -7.309   0.050   0.927  0.00  0.00     0.029 H 
ATOM     20  H3  <0> d          -8.331   1.213   0.048  0.00  0.00     0.029 H 
ENDBRANCH  14  17
ENDBRANCH   1  14
TORSDOF 5
