REMARK  2 active torsions:
REMARK  status: ('A' for Active; 'I' for Inactive)
REMARK    1  A    between atoms: C1_1  and  C2_2 
REMARK       I    between atoms: C2_2  and  N1_4 
REMARK    2  A    between atoms: N1_4  and  C3_5 
ROOT
ATOM      1  C3  <0> d           0.109  -2.063  -1.232  0.00  0.00     0.074 A 
ATOM      2  C4  <0> d           0.126  -2.832  -0.072  0.00  0.00    -0.040 A 
ATOM      3  C5  <0> d           0.234  -4.205  -0.176  0.00  0.00    -0.021 A 
ATOM      4  N2  <0> d           0.320  -4.790  -1.355  0.00  0.00    -0.372 N 
ATOM      5  C6  <0> d           0.308  -4.100  -2.480  0.00  0.00     0.014 A 
ATOM      6  C7  <0> d           0.197  -2.721  -2.463  0.00  0.00     0.149 A 
ATOM      7  O2  <0> d           0.179  -2.016  -3.625  0.00  0.00    -0.188 OA
ATOM      8  H5  <0> d           0.056  -2.361   0.898  0.00  0.00     0.089 H 
ATOM      9  H6  <0> d           0.248  -4.807   0.720  0.00  0.00     0.111 H 
ATOM     10  H7  <0> d           0.381  -4.618  -3.425  0.00  0.00     0.115 H 
ATOM     11  H8  <0> d           0.396  -5.756  -1.396  0.00  0.00     0.164 HD
ENDROOT
BRANCH   1  12
ATOM     12  N1  <0> d           0.000  -0.672  -1.169  0.00  0.00    -0.325 N 
ATOM     13  C2  <0> d           0.565   0.003  -0.148  0.00  0.00     0.218 C 
ATOM     14  O1  <0> d           1.103  -0.603   0.755  0.00  0.00    -0.274 OA
ATOM     15  H4  <0> d          -0.482  -0.191  -1.860  0.00  0.00     0.169 HD
BRANCH  13  16
ATOM     16  C1  <0> d           0.529   1.509  -0.128  0.00  0.00    -0.003 C 
ATOM     17  H1  <0> d           1.410   1.901  -0.635  0.00  0.00     0.040 H 
ATOM     18  H2  <0> d          -0.369   1.858  -0.639  0.00  0.00     0.040 H 
ATOM     19  H3  <0> d           0.518   1.859   0.905  0.00  0.00     0.040 H 
ENDBRANCH  13  16
ENDBRANCH   1  12
TORSDOF 2
