REMARK  5 active torsions:
REMARK  status: ('A' for Active; 'I' for Inactive)
REMARK    1  A    between atoms: C1_1  and  C2_2 
REMARK    2  A    between atoms: C2_2  and  C3_4 
REMARK    3  A    between atoms: C2_2  and  N1_7 
REMARK    4  A    between atoms: C3_4  and  O1_5 
REMARK    5  A    between atoms: O1_5  and  C4_6 
REMARK       I    between atoms: N1_7  and  C5_8 
REMARK       I    between atoms: C5_8  and  N2_10 
ROOT
ATOM      1  C2  <0> d           0.613  -2.097  -1.041  0.00  0.00     0.031 C 
ATOM      2  H1  <0> d           1.185  -2.527  -1.863  0.00  0.00     0.075 H 
ENDROOT
BRANCH   1   3
ATOM      3  C1  <0> d           1.223  -2.539   0.291  0.00  0.00    -0.055 C 
ATOM      4  H2  <0> d           1.195  -3.626   0.360  0.00  0.00     0.030 H 
ATOM      5  H3  <0> d           2.256  -2.197   0.349  0.00  0.00     0.030 H 
ATOM      6  H4  <0> d           0.651  -2.108   1.113  0.00  0.00     0.030 H 
ENDBRANCH   1   3
BRANCH   1   7
ATOM      7  C3  <0> d           0.652  -0.570  -1.138  0.00  0.00     0.037 C 
ATOM      8  H5  <0> d           0.139  -0.251  -2.045  0.00  0.00     0.077 H 
ATOM      9  H6  <0> d           1.688  -0.234  -1.169  0.00  0.00     0.077 H 
BRANCH   7  10
ATOM     10  O1  <0> d           0.002  -0.004   0.002  0.00  0.00    -0.394 OA
BRANCH  10  11
ATOM     11  C4  <0> d          -0.017   1.425   0.010  0.00  0.00     0.004 C 
ATOM     12  H7  <0> d           1.005   1.802   0.002  0.00  0.00     0.066 H 
ATOM     13  H8  <0> d          -0.544   1.786  -0.873  0.00  0.00     0.066 H 
ATOM     14  H9  <0> d          -0.527   1.776   0.907  0.00  0.00     0.066 H 
ENDBRANCH  10  11
ENDBRANCH   7  10
ENDBRANCH   1   7
BRANCH   1  15
ATOM     15  N1  <0> d          -0.776  -2.556  -1.119  0.00  0.00    -0.337 N 
ATOM     16  C5  <0> d          -1.050  -3.801  -1.554  0.00  0.00     0.314 C 
ATOM     17  O2  <0> d          -0.145  -4.544  -1.883  0.00  0.00    -0.248 OA
ATOM     18  N2  <0> d          -2.328  -4.224  -1.626  0.00  0.00    -0.352 N 
ATOM     19  H11 <0> d          -3.050  -3.631  -1.364  0.00  0.00     0.160 HD
ATOM     20  H12 <0> d          -2.526  -5.120  -1.940  0.00  0.00     0.160 HD
ATOM     21  H10 <0> d          -1.498  -1.964  -0.857  0.00  0.00     0.164 HD
ENDBRANCH   1  15
TORSDOF 5
