REMARK  5 active torsions:
REMARK  status: ('A' for Active; 'I' for Inactive)
REMARK    1  A    between atoms: C1_1  and  C2_2 
REMARK    2  A    between atoms: C2_2  and  C3_3 
REMARK    3  A    between atoms: C2_2  and  N1_4 
REMARK    4  A    between atoms: N1_4  and  C4_5 
REMARK       I    between atoms: N1_4  and  C7_9 
REMARK    5  A    between atoms: C4_5  and  C5_6 
REMARK       I    between atoms: C7_9  and  N3_11 
ROOT
ATOM      1  C5  <0> d          -0.292   1.399  -0.120  0.00  0.00     0.030 C 
ATOM      2  C6  <0> d          -0.457  -0.061  -0.217  0.00  0.00     0.060 C 
ATOM      3  N2  <0> d          -0.584  -1.187  -0.292  0.00  0.00    -0.197 NA
ATOM      4  H10 <0> d           0.770   1.644  -0.097  0.00  0.00     0.057 H 
ATOM      5  H11 <0> d          -0.756   1.875  -0.983  0.00  0.00     0.057 H 
ENDROOT
BRANCH   1   6
ATOM      6  C4  <0> d          -0.959   1.903   1.161  0.00  0.00     0.011 C 
ATOM      7  H8  <0> d          -2.021   1.658   1.139  0.00  0.00     0.066 H 
ATOM      8  H9  <0> d          -0.495   1.427   2.025  0.00  0.00     0.066 H 
BRANCH   6   9
ATOM      9  N1  <0> d          -0.795   3.356   1.258  0.00  0.00    -0.330 N 
ATOM     10  C7  <0> d           0.281   3.872   1.884  0.00  0.00     0.316 C 
ATOM     11  O1  <0> d           0.370   5.074   2.048  0.00  0.00    -0.247 OA
ATOM     12  N3  <0> d           1.259   3.057   2.327  0.00  0.00    -0.352 N 
ATOM     13  H12 <0> d           1.224   2.107   2.131  0.00  0.00     0.160 HD
ATOM     14  H13 <0> d           1.996   3.420   2.842  0.00  0.00     0.160 HD
BRANCH   9  15
ATOM     15  C2  <0> d          -1.801   4.247   0.675  0.00  0.00     0.009 C 
ATOM     16  H4  <0> d          -1.555   5.281   0.917  0.00  0.00     0.071 H 
BRANCH  15  17
ATOM     17  C1  <0> d          -1.820   4.069  -0.845  0.00  0.00    -0.057 C 
ATOM     18  H1  <0> d          -2.066   3.036  -1.087  0.00  0.00     0.030 H 
ATOM     19  H2  <0> d          -2.568   4.733  -1.279  0.00  0.00     0.030 H 
ATOM     20  H3  <0> d          -0.839   4.314  -1.251  0.00  0.00     0.030 H 
ENDBRANCH  15  17
BRANCH  15  21
ATOM     21  C3  <0> d          -3.179   3.904   1.246  0.00  0.00    -0.057 C 
ATOM     22  H5  <0> d          -3.165   4.030   2.328  0.00  0.00     0.030 H 
ATOM     23  H6  <0> d          -3.927   4.567   0.812  0.00  0.00     0.030 H 
ATOM     24  H7  <0> d          -3.425   2.870   1.003  0.00  0.00     0.030 H 
ENDBRANCH  15  21
ENDBRANCH   9  15
ENDBRANCH   6   9
ENDBRANCH   1   6
TORSDOF 5
