REMARK  4 active torsions:
REMARK  status: ('A' for Active; 'I' for Inactive)
REMARK    1  A    between atoms: C2_2  and  N2_10 
REMARK    2  A    between atoms: C3_3  and  O2_9 
REMARK    3  A    between atoms: C5_5  and  O1_8 
REMARK    4  A    between atoms: C6_6  and  N1_7 
ROOT
ATOM      1  C1  <0> d           2.409   0.026  -0.021  0.00  0.00    -0.027 A 
ATOM      2  C2  <0> d           1.217  -0.684  -0.013  0.00  0.00     0.061 A 
ATOM      3  C3  <0> d           0.002  -0.004   0.002  0.00  0.00     0.094 A 
ATOM      4  C4  <0> d          -0.017   1.381   0.010  0.00  0.00    -0.015 A 
ATOM      5  C5  <0> d           1.173   2.091   0.002  0.00  0.00     0.094 A 
ATOM      6  C6  <0> d           2.389   1.413  -0.013  0.00  0.00     0.061 A 
ATOM      7  H1  <0> d           3.351  -0.501  -0.032  0.00  0.00     0.090 H 
ATOM      8  H2  <0> d          -0.959   1.908   0.017  0.00  0.00     0.092 H 
ENDROOT
BRANCH   2   9
ATOM      9  N2  <0> d           1.236  -2.086  -0.021  0.00  0.00    -0.397 N 
ATOM     10  H7  <0> d           0.402  -2.582  -0.015  0.00  0.00     0.156 HD
ATOM     11  H8  <0> d           2.082  -2.560  -0.031  0.00  0.00     0.156 HD
ENDBRANCH   2   9
BRANCH   3  12
ATOM     12  O2  <0> d          -1.167  -0.700   0.009  0.00  0.00    -0.358 OA
ATOM     13  H6  <0> d          -1.513  -0.897  -0.872  0.00  0.00     0.217 HD
ENDBRANCH   3  12
BRANCH   6  14
ATOM     14  N1  <0> d           3.593   2.131  -0.021  0.00  0.00    -0.397 N 
ATOM     15  H3  <0> d           4.440   1.658  -0.032  0.00  0.00     0.156 HD
ATOM     16  H4  <0> d           3.579   3.101  -0.016  0.00  0.00     0.156 HD
ENDBRANCH   6  14
BRANCH   5  17
ATOM     17  O1  <0> d           1.154   3.452   0.009  0.00  0.00    -0.358 OA
ATOM     18  H5  <0> d           1.156   3.841   0.894  0.00  0.00     0.217 HD
ENDBRANCH   5  17
TORSDOF 4
