REMARK  3 active torsions:
REMARK  status: ('A' for Active; 'I' for Inactive)
REMARK    1  A    between atoms: C1_1  and  C2_2 
REMARK    2  A    between atoms: C4_4  and  C6_8 
REMARK    3  A    between atoms: N1_5  and  C5_7 
ROOT
ATOM      1  C2  <0> d          -1.030   2.233   3.276  0.00  0.00     0.053 A 
ATOM      2  C3  <0> d          -2.252   2.222   2.596  0.00  0.00    -0.035 A 
ATOM      3  C4  <0> d          -2.019   1.810   1.328  0.00  0.00     0.028 A 
ATOM      4  N1  <0> d          -0.698   1.558   1.213  0.00  0.00    -0.279 N 
ATOM      5  N2  <0> d          -0.098   1.835   2.448  0.00  0.00    -0.178 NA
ATOM      6  H4  <0> d          -3.211   2.499   3.008  0.00  0.00     0.089 H 
ENDROOT
BRANCH   1   7
ATOM      7  C1  <0> d          -0.822   2.633   4.714  0.00  0.00    -0.034 C 
ATOM      8  H1  <0> d          -0.617   3.702   4.768  0.00  0.00     0.035 H 
ATOM      9  H2  <0> d          -1.721   2.405   5.288  0.00  0.00     0.035 H 
ATOM     10  H3  <0> d           0.022   2.080   5.127  0.00  0.00     0.035 H 
ENDBRANCH   1   7
BRANCH   4  11
ATOM     11  C5  <0> d          -0.013   1.086   0.008  0.00  0.00     0.002 C 
ATOM     12  H5  <0> d           0.002  -0.004   0.002  0.00  0.00     0.059 H 
ATOM     13  H6  <0> d           1.010   1.463   0.000  0.00  0.00     0.059 H 
ATOM     14  H7  <0> d          -0.540   1.447  -0.875  0.00  0.00     0.059 H 
ENDBRANCH   4  11
BRANCH   3  15
ATOM     15  C6  <0> d          -3.051   1.654   0.241  0.00  0.00    -0.036 C 
ATOM     16  H8  <0> d          -3.460   0.644   0.269  0.00  0.00     0.035 H 
ATOM     17  H9  <0> d          -3.854   2.375   0.396  0.00  0.00     0.035 H 
ATOM     18  H10 <0> d          -2.587   1.831  -0.729  0.00  0.00     0.035 H 
ENDBRANCH   3  15
TORSDOF 3
