REMARK  5 active torsions:
REMARK  status: ('A' for Active; 'I' for Inactive)
REMARK    1  A    between atoms: C1_1  and  C2_2 
REMARK    2  A    between atoms: C2_2  and  C3_3 
REMARK    3  A    between atoms: C2_2  and  O1_4 
REMARK    4  A    between atoms: O1_4  and  C4_5 
REMARK    5  A    between atoms: C4_5  and  C5_7 
ROOT
ATOM      1  O1  <0> d          -0.018   1.448   0.010  0.00  0.00    -0.311 OA
ENDROOT
BRANCH   1   2
ATOM      2  C2  <0> d           0.002  -0.004   0.002  0.00  0.00     0.041 C 
ATOM      3  H4  <0> d           0.892  -0.352  -0.522  0.00  0.00     0.083 H 
BRANCH   2   4
ATOM      4  C1  <0> d           0.023  -0.522   1.442  0.00  0.00    -0.052 C 
ATOM      5  H1  <0> d           0.037  -1.612   1.436  0.00  0.00     0.030 H 
ATOM      6  H2  <0> d           0.913  -0.149   1.949  0.00  0.00     0.030 H 
ATOM      7  H3  <0> d          -0.867  -0.173   1.966  0.00  0.00     0.030 H 
ENDBRANCH   2   4
BRANCH   2   8
ATOM      8  C3  <0> d          -1.247  -0.527  -0.710  0.00  0.00    -0.052 C 
ATOM      9  H5  <0> d          -1.262  -0.158  -1.736  0.00  0.00     0.030 H 
ATOM     10  H6  <0> d          -1.232  -1.617  -0.716  0.00  0.00     0.030 H 
ATOM     11  H7  <0> d          -2.137  -0.179  -0.186  0.00  0.00     0.030 H 
ENDBRANCH   2   8
ENDBRANCH   1   2
BRANCH   1  12
ATOM     12  C4  <0> d           1.176   2.076   0.002  0.00  0.00     0.317 C 
ATOM     13  O2  <0> d           2.205   1.428  -0.011  0.00  0.00    -0.257 OA
BRANCH  12  14
ATOM     14  C5  <0> d           1.233   3.540   0.009  0.00  0.00     0.149 A 
ATOM     15  O3  <0> d           0.172   4.375   0.018  0.00  0.00    -0.317 OA
ATOM     16  C8  <0> d           0.605   5.642   0.026  0.00  0.00     0.020 A 
ATOM     17  C7  <0> d           1.957   5.641   0.013  0.00  0.00    -0.059 A 
ATOM     18  H10 <0> d          -0.023   6.521   0.035  0.00  0.00     0.123 H 
ATOM     19  C6  <0> d           2.368   4.300   0.003  0.00  0.00    -0.042 A 
ATOM     20  H9  <0> d           2.599   6.509   0.012  0.00  0.00     0.086 H 
ATOM     21  H8  <0> d           3.386   3.938  -0.009  0.00  0.00     0.088 H 
ENDBRANCH  12  14
ENDBRANCH   1  12
TORSDOF 5
