REMARK  0 active torsions:
REMARK  status: ('A' for Active; 'I' for Inactive)
ROOT
ATOM      1  C1  <0> d          -1.547   2.114  -3.383  0.00  0.00    -0.082 A 
ATOM      2  C2  <0> d          -2.609   2.828  -2.859  0.00  0.00    -0.080 A 
ATOM      3  C3  <0> d          -2.771   2.936  -1.493  0.00  0.00    -0.050 A 
ATOM      4  C4  <0> d          -1.863   2.328  -0.629  0.00  0.00     0.086 A 
ATOM      5  C5  <0> d          -0.802   1.615  -1.169  0.00  0.00    -0.015 A 
ATOM      6  C6  <0> d          -0.640   1.507  -2.531  0.00  0.00    -0.074 A 
ATOM      7  C7  <0> d          -0.013   1.086   0.008  0.00  0.00     0.043 A 
ATOM      8  C8  <0> d          -0.781   1.604   1.208  0.00  0.00     0.268 A 
ATOM      9  O1  <0> d          -0.508   1.422   2.371  0.00  0.00    -0.265 OA
ATOM     10  O2  <0> d          -1.821   2.300   0.725  0.00  0.00    -0.278 OA
ATOM     11  H1  <0> d          -1.424   2.032  -4.453  0.00  0.00     0.083 H 
ATOM     12  H2  <0> d          -3.316   3.302  -3.522  0.00  0.00     0.083 H 
ATOM     13  H3  <0> d          -3.604   3.495  -1.093  0.00  0.00     0.087 H 
ATOM     14  H4  <0> d           0.192   0.949  -2.935  0.00  0.00     0.084 H 
ATOM     15  H5  <0> d           0.002  -0.004   0.002  0.00  0.00     0.055 H 
ATOM     16  H6  <0> d           1.002   1.483   0.001  0.00  0.00     0.055 H 
ENDROOT
TORSDOF 0
