REMARK  1 active torsions:
REMARK  status: ('A' for Active; 'I' for Inactive)
REMARK    1  A    between atoms: C2_2  and  C3_3 
ROOT
ATOM      1  C1  <0> d           0.018  -1.178  -0.004  0.00  0.00    -0.149 C 
ATOM      2  C2  <0> d           0.002  -0.004   0.002  0.00  0.00    -0.078 C 
ATOM      3  H1  <0> d           0.032  -2.228  -0.010  0.00  0.00     0.166 H 
ENDROOT
BRANCH   2   4
ATOM      4  C3  <0> d          -0.017   1.428   0.010  0.00  0.00     0.017 A 
ATOM      5  C8  <0> d           1.182   2.143   0.002  0.00  0.00    -0.058 A 
ATOM      6  C7  <0> d           1.167   3.512   0.005  0.00  0.00    -0.043 A 
ATOM      7  H4  <0> d           2.124   1.615  -0.010  0.00  0.00     0.086 H 
ATOM      8  C6  <0> d          -0.049   4.199   0.026  0.00  0.00     0.016 A 
ATOM      9  C9  <0> d           2.307   4.503  -0.005  0.00  0.00    -0.034 A 
ATOM     10  C5  <0> d          -1.254   3.475   0.039  0.00  0.00    -0.068 A 
ATOM     11  C11 <0> d           0.176   5.652   0.031  0.00  0.00     0.160 A 
ATOM     12  C4  <0> d          -1.237   2.111   0.031  0.00  0.00    -0.064 A 
ATOM     13  H3  <0> d          -2.198   4.000   0.054  0.00  0.00     0.085 H 
ATOM     14  H2  <0> d          -2.165   1.559   0.041  0.00  0.00     0.085 H 
ATOM     15  C10 <0> d           1.666   5.897   0.012  0.00  0.00    -0.001 A 
ATOM     16  O1  <0> d          -0.685   6.506   0.047  0.00  0.00    -0.292 OA
ATOM     17  H7  <0> d           1.970   6.442   0.906  0.00  0.00     0.045 H 
ATOM     18  H8  <0> d           1.946   6.452  -0.883  0.00  0.00     0.045 H 
ATOM     19  H5  <0> d           2.929   4.366   0.879  0.00  0.00     0.040 H 
ATOM     20  H6  <0> d           2.905   4.377  -0.907  0.00  0.00     0.040 H 
ENDBRANCH   2   4
TORSDOF 1
