REMARK  4 active torsions:
REMARK  status: ('A' for Active; 'I' for Inactive)
REMARK    1  A    between atoms: C1_1  and  C2_2 
REMARK    2  A    between atoms: C2_2  and  C3_3 
REMARK    3  A    between atoms: C3_3  and  O1_5 
REMARK    4  A    between atoms: C3_3  and  S1_6 
ROOT
ATOM      1  C3  <0> d          -2.164   1.050   1.278  0.00  0.00     0.149 C 
ATOM      2  H1  <0> d          -2.544   1.180   0.254  0.00  0.00     0.112 H 
ENDROOT
BRANCH   1   3
ATOM      3  C2  <0> d          -0.729   1.579   1.267  0.00  0.00    -0.029 C 
ATOM      4  H5  <0> d          -0.197   1.215   2.158  0.00  0.00     0.037 H 
ATOM      5  H6  <0> d          -0.744   2.679   1.273  0.00  0.00     0.037 H 
BRANCH   3   6
ATOM      6  C1  <0> d          -0.013   1.086   0.008  0.00  0.00    -0.073 C 
ATOM      7  H2  <0> d           1.019   1.466   0.000  0.00  0.00     0.027 H 
ATOM      8  H3  <0> d          -0.545   1.450  -0.883  0.00  0.00     0.027 H 
ATOM      9  H4  <0> d           0.002  -0.014   0.002  0.00  0.00     0.027 H 
ENDBRANCH   3   6
ENDBRANCH   1   3
BRANCH   1  10
ATOM     10  O1  <0> d          -2.146  -0.375   1.387  0.00  0.00    -0.378 OA
ATOM     11  H7  <0> d          -3.091  -0.937   1.411  0.00  0.00     0.211 HD
ENDBRANCH   1  10
BRANCH   1  12
ATOM     12  S1  <0> d          -3.058   1.753   2.691  0.00  0.00     0.131 S 
ATOM     13  O2  <0> d          -2.454   1.336   3.908  0.00  0.00    -0.593 OA
ATOM     14  O3  <0> d          -3.342   3.126   2.456  0.00  0.00    -0.593 OA
ATOM     15  O4  <0> d          -4.416   1.067   2.676  0.00  0.00    -0.593 OA
ENDBRANCH   1  12
TORSDOF 4
