REMARK  0 active torsions:
REMARK  status: ('A' for Active; 'I' for Inactive)
ROOT
ATOM      1  C1  <0> d          -0.013   1.086   0.008  0.00  0.00    -0.028 C 
ATOM      2  C2  <0> d          -0.788   1.610   1.237  0.00  0.00     0.021 C 
ATOM      3  O1  <0> d          -1.501   2.772   0.753  0.00  0.00    -0.390 OA
ATOM      4  C3  <0> d          -1.978   2.408  -0.561  0.00  0.00     0.035 C 
ATOM      5  C4  <0> d          -0.811   1.623  -1.201  0.00  0.00     0.052 C 
ATOM      6  H1  <0> d          -0.210   2.215  -1.907  0.00  0.00     0.066 H 
ATOM      7  C5  <0> d          -1.322   0.510  -2.018  0.00  0.00     0.066 C 
ATOM      8  N1  <0> d          -1.716  -0.349  -2.648  0.00  0.00    -0.197 NA
ATOM      9  H2  <0> d           0.011  -0.013  -0.028  0.00  0.00     0.038 H 
ATOM     10  H3  <0> d           1.015   1.476  -0.029  0.00  0.00     0.038 H 
ATOM     11  H4  <0> d          -1.474   0.830   1.597  0.00  0.00     0.074 H 
ATOM     12  H5  <0> d          -0.077   1.870   2.035  0.00  0.00     0.074 H 
ATOM     13  H6  <0> d          -2.882   1.789  -0.465  0.00  0.00     0.076 H 
ATOM     14  H7  <0> d          -2.216   3.319  -1.129  0.00  0.00     0.076 H 
ENDROOT
TORSDOF 0
