REMARK  3 active torsions:
REMARK  status: ('A' for Active; 'I' for Inactive)
REMARK    1  A    between atoms: C1_1  and  C2_2 
REMARK    2  A    between atoms: C5_5  and  C9_9 
REMARK    3  A    between atoms: C7_7  and  C8_8 
ROOT
ATOM      1  C2  <0> d          -3.720   3.284   0.037  0.00  0.00    -0.056 A 
ATOM      2  C3  <0> d          -2.533   3.995   0.035  0.00  0.00    -0.076 A 
ATOM      3  C4  <0> d          -1.326   3.328   0.032  0.00  0.00    -0.066 A 
ATOM      4  C5  <0> d          -1.304   1.932   0.019  0.00  0.00     0.041 A 
ATOM      5  C6  <0> d          -2.505   1.220   0.021  0.00  0.00    -0.060 A 
ATOM      6  C7  <0> d          -3.705   1.900   0.030  0.00  0.00    -0.055 A 
ATOM      7  H4  <0> d          -2.552   5.075   0.041  0.00  0.00     0.084 H 
ATOM      8  H5  <0> d          -0.401   3.884   0.036  0.00  0.00     0.085 H 
ATOM      9  H6  <0> d          -2.494   0.141   0.015  0.00  0.00     0.086 H 
ENDROOT
BRANCH   1  10
ATOM     10  C1  <0> d          -5.036   4.019   0.046  0.00  0.00    -0.051 C 
ATOM     11  H1  <0> d          -5.348   4.191   1.076  0.00  0.00     0.033 H 
ATOM     12  H2  <0> d          -4.920   4.976  -0.463  0.00  0.00     0.033 H 
ATOM     13  H3  <0> d          -5.789   3.423  -0.468  0.00  0.00     0.033 H 
ENDBRANCH   1  10
BRANCH   6  14
ATOM     14  C8  <0> d          -5.003   1.134   0.032  0.00  0.00    -0.051 C 
ATOM     15  H7  <0> d          -5.311   0.944   1.060  0.00  0.00     0.033 H 
ATOM     16  H8  <0> d          -5.771   1.719  -0.475  0.00  0.00     0.033 H 
ATOM     17  H9  <0> d          -4.866   0.186  -0.488  0.00  0.00     0.033 H 
ENDBRANCH   6  14
BRANCH   4  18
ATOM     18  C9  <0> d          -0.014   1.210   0.009  0.00  0.00     0.209 C 
ATOM     19  O1  <0> d           0.002  -0.004   0.002  0.00  0.00    -0.644 OA
ATOM     20  O2  <0> d           1.143   1.900   0.001  0.00  0.00    -0.644 OA
ENDBRANCH   4  18
TORSDOF 3
