REMARK  4 active torsions:
REMARK  status: ('A' for Active; 'I' for Inactive)
REMARK    1  A    between atoms: C1_1  and  C2_2 
REMARK    2  A    between atoms: C2_2  and  C3_4 
REMARK    3  A    between atoms: C2_2  and  N1_6 
REMARK       I    between atoms: N1_6  and  C4_7 
REMARK    4  A    between atoms: C4_7  and  C5_9 
ROOT
ATOM      1  N1  <0> d          -2.430   0.973   0.019  0.00  0.00    -0.347 N 
ATOM      2  C4  <0> d          -3.632   1.320   0.520  0.00  0.00     0.222 C 
ATOM      3  O2  <0> d          -3.803   2.433   0.971  0.00  0.00    -0.273 OA
ATOM      4  H5  <0> d          -2.293   0.083  -0.342  0.00  0.00     0.163 HD
ENDROOT
BRANCH   1   5
ATOM      5  C2  <0> d          -1.329   1.940   0.019  0.00  0.00     0.092 C 
ATOM      6  H1  <0> d          -1.391   2.561   0.913  0.00  0.00     0.089 H 
BRANCH   5   7
ATOM      7  C1  <0> d          -1.428   2.825  -1.225  0.00  0.00    -0.048 C 
ATOM      8  H2  <0> d          -2.380   3.357  -1.218  0.00  0.00     0.030 H 
ATOM      9  H3  <0> d          -0.610   3.545  -1.225  0.00  0.00     0.030 H 
ATOM     10  H4  <0> d          -1.366   2.204  -2.119  0.00  0.00     0.030 H 
ENDBRANCH   5   7
BRANCH   5  11
ATOM     11  C3  <0> d          -0.014   1.204   0.009  0.00  0.00     0.196 C 
ATOM     12  O1  <0> d           0.002  -0.004   0.002  0.00  0.00    -0.646 OA
ATOM     13  O3  <0> d           1.139   1.891   0.001  0.00  0.00    -0.646 OA
ENDBRANCH   5  11
ENDBRANCH   1   5
BRANCH   2  14
ATOM     14  C5  <0> d          -4.764   0.325   0.520  0.00  0.00     0.024 A 
ATOM     15  C7  <0> d          -6.104   0.779   1.102  0.00  0.00    -0.053 A 
ATOM     16  C6  <0> d          -5.948   0.602  -0.409  0.00  0.00    -0.053 A 
ATOM     17  H9  <0> d          -6.697   0.038   1.637  0.00  0.00     0.034 H 
ATOM     18  H10 <0> d          -6.167   1.798   1.486  0.00  0.00     0.034 H 
ATOM     19  H7  <0> d          -5.908   1.503  -1.021  0.00  0.00     0.034 H 
ATOM     20  H8  <0> d          -6.439  -0.256  -0.869  0.00  0.00     0.034 H 
ATOM     21  H6  <0> d          -4.476  -0.715   0.672  0.00  0.00     0.054 H 
ENDBRANCH   2  14
TORSDOF 4
