REMARK  2 active torsions:
REMARK  status: ('A' for Active; 'I' for Inactive)
REMARK    1  A    between atoms: C1_1  and  N1_2 
REMARK    2  A    between atoms: C3_4  and  C5_7 
ROOT
ATOM      1  C5  <0> d           0.039  -3.249  -1.510  0.00  0.00    -0.075 C 
ATOM      2  C6  <0> d           0.048  -4.202  -2.196  0.00  0.00    -0.149 C 
ATOM      3  H6  <0> d           0.057  -5.054  -2.810  0.00  0.00     0.166 H 
ENDROOT
BRANCH   1   4
ATOM      4  C3  <0> d           0.027  -2.087  -0.673  0.00  0.00     0.053 A 
ATOM      5  C2  <0> d           0.008  -0.788  -1.095  0.00  0.00     0.017 A 
ATOM      6  N1  <0> d           0.002  -0.004   0.002  0.00  0.00    -0.284 N 
ATOM      7  H4  <0> d          -0.002  -0.450  -2.120  0.00  0.00     0.116 H 
ATOM      8  N2  <0> d           0.025  -0.830   1.132  0.00  0.00    -0.184 NA
ATOM      9  C4  <0> d           0.034  -2.076   0.737  0.00  0.00     0.041 A 
ATOM     10  H5  <0> d           0.048  -2.944   1.379  0.00  0.00     0.119 H 
BRANCH   6  11
ATOM     11  C1  <0> d          -0.018   1.461   0.010  0.00  0.00     0.002 C 
ATOM     12  H1  <0> d           1.005   1.838   0.002  0.00  0.00     0.059 H 
ATOM     13  H2  <0> d          -0.545   1.822  -0.873  0.00  0.00     0.059 H 
ATOM     14  H3  <0> d          -0.528   1.812   0.907  0.00  0.00     0.059 H 
ENDBRANCH   6  11
ENDBRANCH   1   4
TORSDOF 2
