REMARK  1 active torsions:
REMARK  status: ('A' for Active; 'I' for Inactive)
REMARK    1  A    between atoms: C3_4  and  C5_9 
ROOT
ATOM      1  C1  <0> d          -0.017   1.406   0.010  0.00  0.00    -0.000 A 
ATOM      2  C2  <0> d           1.170   2.074   0.002  0.00  0.00     0.009 A 
ATOM      3  N1  <0> d           2.318   1.392  -0.013  0.00  0.00    -0.247 NA
ATOM      4  C3  <0> d           2.336   0.086  -0.020  0.00  0.00     0.110 A 
ATOM      5  N2  <0> d           1.196  -0.634  -0.013  0.00  0.00    -0.311 N 
ATOM      6  H1  <0> d           1.234  -1.603  -0.019  0.00  0.00     0.170 HD
ATOM      7  C4  <0> d           0.002  -0.004   0.002  0.00  0.00     0.247 A 
ATOM      8  O1  <0> d          -1.038  -0.641   0.009  0.00  0.00    -0.268 OA
ATOM      9  H2  <0> d          -0.953   1.945   0.026  0.00  0.00     0.094 H 
ATOM     10  H3  <0> d           1.183   3.154   0.007  0.00  0.00     0.115 H 
ENDROOT
BRANCH   4  11
ATOM     11  C5  <0> d           3.660  -0.632  -0.036  0.00  0.00     0.004 A 
ATOM     12  C7  <0> d           4.862   0.115  -0.617  0.00  0.00    -0.054 A 
ATOM     13  C6  <0> d           4.758  -0.111   0.892  0.00  0.00    -0.054 A 
ATOM     14  H7  <0> d           5.602  -0.469  -1.164  0.00  0.00     0.034 H 
ATOM     15  H8  <0> d           4.694   1.127  -0.988  0.00  0.00     0.034 H 
ATOM     16  H5  <0> d           4.523   0.752   1.515  0.00  0.00     0.034 H 
ATOM     17  H6  <0> d           5.430  -0.844   1.339  0.00  0.00     0.034 H 
ATOM     18  H4  <0> d           3.609  -1.709  -0.201  0.00  0.00     0.052 H 
ENDBRANCH   4  11
TORSDOF 1
