REMARK  4 active torsions:
REMARK  status: ('A' for Active; 'I' for Inactive)
REMARK    1  A    between atoms: C1_1  and  C2_2 
REMARK    2  A    between atoms: C4_5  and  C5_7 
REMARK       I    between atoms: C5_7  and  N1_9 
REMARK    3  A    between atoms: N1_9  and  C6_10 
REMARK    4  A    between atoms: C6_10  and  C7_11 
ROOT
ATOM      1  C2  <0> d          -0.729   1.579   1.267  0.00  0.00    -0.045 A 
ATOM      2  H1  <0> d          -1.021   2.530   0.798  0.00  0.00     0.040 H 
ATOM      3  C3  <0> d          -1.439   0.535   2.131  0.00  0.00    -0.050 A 
ATOM      4  C4  <0> d          -0.139   1.175   2.619  0.00  0.00     0.027 A 
ATOM      5  H2  <0> d           0.179   1.710   3.527  0.00  0.00     0.055 H 
ATOM      6  H6  <0> d          -2.451   0.890   2.377  0.00  0.00     0.034 H 
ATOM      7  H7  <0> d          -1.509  -0.413   1.577  0.00  0.00     0.034 H 
ENDROOT
BRANCH   4   8
ATOM      8  C5  <0> d           1.103   0.322   2.610  0.00  0.00     0.222 C 
ATOM      9  O1  <0> d           1.597  -0.018   1.556  0.00  0.00    -0.273 OA
ATOM     10  N1  <0> d           1.666  -0.063   3.773  0.00  0.00    -0.351 N 
ATOM     11  H8  <0> d           1.218   0.246   4.729  0.00  0.00     0.163 HD
BRANCH  10  12
ATOM     12  C6  <0> d           2.873  -0.892   3.764  0.00  0.00     0.075 C 
ATOM     13  H9  <0> d           2.664  -1.839   3.244  0.00  0.00     0.080 H 
ATOM     14  H10 <0> d           3.681  -0.358   3.242  0.00  0.00     0.080 H 
BRANCH  12  15
ATOM     15  C7  <0> d           3.295  -1.180   5.181  0.00  0.00     0.191 C 
ATOM     16  O2  <0> d           2.654  -0.738   6.104  0.00  0.00    -0.647 OA
ATOM     17  O3  <0> d           4.385  -1.928   5.418  0.00  0.00    -0.647 OA
ENDBRANCH  12  15
ENDBRANCH  10  12
ENDBRANCH   4   8
BRANCH   1  18
ATOM     18  C1  <0> d          -0.013   1.086   0.008  0.00  0.00    -0.072 C 
ATOM     19  H3  <0> d          -0.545   1.450  -0.883  0.00  0.00     0.028 H 
ATOM     20  H4  <0> d           0.002  -0.014   0.002  0.00  0.00     0.028 H 
ATOM     21  H5  <0> d           1.019   1.467   0.000  0.00  0.00     0.028 H 
ENDBRANCH   1  18
TORSDOF 4
