REMARK  1 active torsions:
REMARK  status: ('A' for Active; 'I' for Inactive)
REMARK    1  A    between atoms: C1_1  and  C2_2 
ROOT
ATOM      1  C2  <0> d           0.002  -0.004   0.002  0.00  0.00     0.042 C 
ATOM      2  H1  <0> d           0.512  -0.359  -0.894  0.00  0.00     0.083 H 
ATOM      3  C3  <0> d          -1.435  -0.540   0.026  0.00  0.00    -0.037 C 
ATOM      4  C4  <0> d          -1.381  -2.065  -0.095  0.00  0.00    -0.036 C 
ATOM      5  C5  <0> d          -0.371  -2.616   0.879  0.00  0.00    -0.025 A 
ATOM      6  C6  <0> d          -0.425  -3.961   1.206  0.00  0.00    -0.074 A 
ATOM      7  C7  <0> d           0.487  -4.500   2.092  0.00  0.00    -0.082 A 
ATOM      8  C8  <0> d           1.460  -3.697   2.657  0.00  0.00    -0.080 A 
ATOM      9  C9  <0> d           1.517  -2.356   2.337  0.00  0.00    -0.050 A 
ATOM     10  C10 <0> d           0.599  -1.808   1.446  0.00  0.00     0.075 A 
ATOM     11  O1  <0> d           0.682  -0.482   1.164  0.00  0.00    -0.346 OA
ATOM     12  H5  <0> d          -1.915  -0.263   0.964  0.00  0.00     0.037 H 
ATOM     13  H6  <0> d          -1.996  -0.125  -0.811  0.00  0.00     0.037 H 
ATOM     14  H7  <0> d          -2.364  -2.482   0.127  0.00  0.00     0.040 H 
ATOM     15  H8  <0> d          -1.093  -2.339  -1.110  0.00  0.00     0.040 H 
ATOM     16  H9  <0> d          -1.183  -4.591   0.765  0.00  0.00     0.084 H 
ATOM     17  H10 <0> d           0.440  -5.550   2.343  0.00  0.00     0.083 H 
ATOM     18  H11 <0> d           2.174  -4.118   3.349  0.00  0.00     0.083 H 
ATOM     19  H12 <0> d           2.277  -1.729   2.780  0.00  0.00     0.087 H 
ENDROOT
BRANCH   1  20
ATOM     20  C1  <0> d          -0.019   1.526   0.010  0.00  0.00    -0.052 C 
ATOM     21  H2  <0> d           1.004   1.903   0.003  0.00  0.00     0.030 H 
ATOM     22  H3  <0> d          -0.546   1.887  -0.873  0.00  0.00     0.030 H 
ATOM     23  H4  <0> d          -0.529   1.877   0.907  0.00  0.00     0.030 H 
ENDBRANCH   1  20
TORSDOF 1
