REMARK  5 active torsions:
REMARK  status: ('A' for Active; 'I' for Inactive)
REMARK    1  A    between atoms: C1_1  and  C2_2 
REMARK    2  A    between atoms: C2_2  and  N1_3 
REMARK    3  A    between atoms: N1_3  and  C3_4 
REMARK    4  A    between atoms: C6_7  and  C9_11 
REMARK    5  A    between atoms: C8_9  and  N2_10 
ROOT
ATOM      1  C3  <0> d          -1.609  -1.891   0.007  0.00  0.00     0.054 A 
ATOM      2  C4  <0> d          -0.545  -2.780  -0.002  0.00  0.00    -0.055 A 
ATOM      3  C5  <0> d          -0.781  -4.142  -0.006  0.00  0.00    -0.075 A 
ATOM      4  C6  <0> d          -2.078  -4.622  -0.002  0.00  0.00    -0.060 A 
ATOM      5  C7  <0> d          -3.145  -3.744   0.007  0.00  0.00    -0.050 A 
ATOM      6  C8  <0> d          -2.917  -2.376   0.017  0.00  0.00     0.052 A 
ATOM      7  H7  <0> d           0.469  -2.407  -0.006  0.00  0.00     0.087 H 
ATOM      8  H8  <0> d           0.049  -4.832  -0.014  0.00  0.00     0.084 H 
ATOM      9  H9  <0> d          -4.157  -4.123   0.010  0.00  0.00     0.087 H 
ENDROOT
BRANCH   1  10
ATOM     10  N1  <0> d          -1.372  -0.511   0.012  0.00  0.00    -0.388 N 
ATOM     11  H6  <0> d          -2.118   0.109   0.023  0.00  0.00     0.159 HD
BRANCH  10  12
ATOM     12  C2  <0> d           0.002  -0.004   0.002  0.00  0.00    -0.011 C 
ATOM     13  H4  <0> d           0.512  -0.356  -0.895  0.00  0.00     0.063 H 
ATOM     14  H5  <0> d           0.529  -0.365   0.885  0.00  0.00     0.063 H 
BRANCH  12  15
ATOM     15  C1  <0> d          -0.019   1.526   0.010  0.00  0.00    -0.061 C 
ATOM     16  H1  <0> d           1.004   1.903   0.003  0.00  0.00     0.029 H 
ATOM     17  H2  <0> d          -0.546   1.887  -0.873  0.00  0.00     0.029 H 
ATOM     18  H3  <0> d          -0.529   1.877   0.907  0.00  0.00     0.029 H 
ENDBRANCH  12  15
ENDBRANCH  10  12
ENDBRANCH   1  10
BRANCH   6  19
ATOM     19  N2  <0> d          -3.997  -1.484   0.032  0.00  0.00    -0.397 N 
ATOM     20  H10 <0> d          -3.836  -0.528   0.035  0.00  0.00     0.156 HD
ATOM     21  H11 <0> d          -4.905  -1.823   0.039  0.00  0.00     0.156 HD
ENDBRANCH   6  19
BRANCH   4  22
ATOM     22  C9  <0> d          -2.328  -6.109  -0.007  0.00  0.00    -0.051 C 
ATOM     23  H12 <0> d          -2.383  -6.472   1.019  0.00  0.00     0.033 H 
ATOM     24  H13 <0> d          -3.268  -6.317  -0.517  0.00  0.00     0.033 H 
ATOM     25  H14 <0> d          -1.513  -6.612  -0.528  0.00  0.00     0.033 H 
ENDBRANCH   4  22
TORSDOF 5
