REMARK  1 active torsions:
REMARK  status: ('A' for Active; 'I' for Inactive)
REMARK    1  A    between atoms: C5_6  and  C6_7 
ROOT
ATOM      1  C1  <0> d          -1.222   1.740   0.017  0.00  0.00    -0.052 A 
ATOM      2  C2  <0> d          -0.013   1.076   0.008  0.00  0.00     0.003 A 
ATOM      3  N1  <0> d           1.126   1.742   0.001  0.00  0.00    -0.273 NA
ATOM      4  C3  <0> d           1.166   3.061   0.007  0.00  0.00     0.003 A 
ATOM      5  C4  <0> d           0.004   3.805   0.022  0.00  0.00    -0.052 A 
ATOM      6  C5  <0> d          -1.227   3.139   0.030  0.00  0.00     0.020 A 
ATOM      7  H1  <0> d          -2.150   1.188   0.019  0.00  0.00     0.087 H 
ATOM      8  H2  <0> d           0.002  -0.004   0.002  0.00  0.00     0.114 H 
ATOM      9  H3  <0> d           2.121   3.565   0.001  0.00  0.00     0.114 H 
ATOM     10  H4  <0> d           0.045   4.884   0.027  0.00  0.00     0.087 H 
ENDROOT
BRANCH   6  11
ATOM     11  C6  <0> d          -2.498   3.894   0.046  0.00  0.00     0.179 A 
ATOM     12  O1  <0> d          -2.616   5.233   0.060  0.00  0.00    -0.302 OA
ATOM     13  C8  <0> d          -3.930   5.529   0.068  0.00  0.00     0.038 A 
ATOM     14  C7  <0> d          -4.602   4.362   0.068  0.00  0.00     0.026 A 
ATOM     15  H6  <0> d          -4.364   6.518   0.077  0.00  0.00     0.125 H 
ATOM     16  N2  <0> d          -3.701   3.369   0.055  0.00  0.00    -0.234 NA
ATOM     17  H5  <0> d          -5.676   4.246   0.077  0.00  0.00     0.117 H 
ENDBRANCH   6  11
TORSDOF 1
