REMARK  4 active torsions:
REMARK  status: ('A' for Active; 'I' for Inactive)
REMARK    1  A    between atoms: C1_1  and  C2_2 
REMARK    2  A    between atoms: C2_2  and  C3_4 
REMARK    3  A    between atoms: C2_2  and  O1_12 
REMARK    4  A    between atoms: C4_5  and  C5_6 
ROOT
ATOM      1  C3  <0> d           2.460  -2.662  -0.074  0.00  0.00    -0.075 C 
ATOM      2  C4  <0> d           1.347  -2.030   0.272  0.00  0.00    -0.073 C 
ATOM      3  H5  <0> d           2.432  -3.717  -0.305  0.00  0.00     0.080 H 
ATOM      4  H6  <0> d           0.395  -2.533   0.199  0.00  0.00     0.084 H 
ENDROOT
BRANCH   2   5
ATOM      5  C5  <0> d           1.411  -0.634   0.756  0.00  0.00    -0.019 A 
ATOM      6  C9  <0> d           0.466   0.304   0.341  0.00  0.00     0.012 A 
ATOM      7  N1  <0> d           0.521   1.547   0.774  0.00  0.00    -0.272 NA
ATOM      8  H10 <0> d          -0.318   0.009  -0.340  0.00  0.00     0.116 H 
ATOM      9  C8  <0> d           1.460   1.953   1.606  0.00  0.00     0.002 A 
ATOM     10  C7  <0> d           2.434   1.084   2.064  0.00  0.00    -0.065 A 
ATOM     11  H9  <0> d           1.469   2.982   1.935  0.00  0.00     0.114 H 
ATOM     12  C6  <0> d           2.419  -0.233   1.640  0.00  0.00    -0.070 A 
ATOM     13  H8  <0> d           3.194   1.428   2.749  0.00  0.00     0.085 H 
ATOM     14  H7  <0> d           3.167  -0.933   1.981  0.00  0.00     0.084 H 
ENDBRANCH   2   5
BRANCH   1  15
ATOM     15  C2  <0> d           3.764  -1.910  -0.144  0.00  0.00     0.048 C 
ATOM     16  H1  <0> d           3.578  -0.846   0.002  0.00  0.00     0.088 H 
BRANCH  15  17
ATOM     17  C1  <0> d           4.407  -2.131  -1.515  0.00  0.00    -0.049 C 
ATOM     18  H2  <0> d           3.736  -1.769  -2.294  0.00  0.00     0.031 H 
ATOM     19  H3  <0> d           5.350  -1.587  -1.566  0.00  0.00     0.031 H 
ATOM     20  H4  <0> d           4.593  -3.195  -1.661  0.00  0.00     0.031 H 
ENDBRANCH  15  17
BRANCH  15  21
ATOM     21  O1  <0> d           4.644  -2.385   0.877  0.00  0.00    -0.392 OA
ATOM     22  H11 <0> d           4.841  -3.329   0.818  0.00  0.00     0.210 HD
ENDBRANCH  15  21
ENDBRANCH   1  15
TORSDOF 4
