REMARK  4 active torsions:
REMARK  status: ('A' for Active; 'I' for Inactive)
REMARK    1  A    between atoms: C2_2  and  C4_5 
REMARK    2  A    between atoms: C2_2  and  C5_7 
REMARK    3  A    between atoms: C4_5  and  O2_6 
REMARK    4  A    between atoms: C5_7  and  O3_8 
ROOT
ATOM      1  C1  <0> d          -0.013   1.086   0.008  0.00  0.00     0.032 C 
ATOM      2  C2  <0> d          -0.925   1.677   1.090  0.00  0.00     0.045 C 
ATOM      3  C3  <0> d          -1.958   1.538  -0.037  0.00  0.00     0.032 C 
ATOM      4  O1  <0> d          -0.885   1.649  -0.981  0.00  0.00    -0.389 OA
ATOM      5  H1  <0> d           0.023  -0.007  -0.114  0.00  0.00     0.075 H 
ATOM      6  H2  <0> d           0.998   1.502  -0.115  0.00  0.00     0.075 H 
ATOM      7  H3  <0> d          -2.479   0.574   0.060  0.00  0.00     0.075 H 
ATOM      8  H4  <0> d          -2.688   2.357   0.032  0.00  0.00     0.075 H 
ENDROOT
BRANCH   2   9
ATOM      9  C4  <0> d          -1.165   0.759   2.291  0.00  0.00     0.030 C 
ATOM     10  H5  <0> d          -1.637  -0.175   1.950  0.00  0.00     0.075 H 
ATOM     11  H6  <0> d          -0.204   0.528   2.774  0.00  0.00     0.075 H 
BRANCH   9  12
ATOM     12  O2  <0> d          -2.024   1.413   3.226  0.00  0.00    -0.400 OA
ATOM     13  H7  <0> d          -2.311   0.904   4.159  0.00  0.00     0.209 HD
ENDBRANCH   9  12
ENDBRANCH   2   9
BRANCH   2  14
ATOM     14  C5  <0> d          -0.599   3.120   1.479  0.00  0.00     0.030 C 
ATOM     15  H8  <0> d           0.430   3.171   1.866  0.00  0.00     0.075 H 
ATOM     16  H9  <0> d          -0.691   3.768   0.595  0.00  0.00     0.075 H 
BRANCH  14  17
ATOM     17  O3  <0> d          -1.510   3.558   2.489  0.00  0.00    -0.400 OA
ATOM     18  H10 <0> d          -1.430   4.577   2.897  0.00  0.00     0.209 HD
ENDBRANCH  14  17
ENDBRANCH   2  14
TORSDOF 4
