REMARK  4 active torsions:
REMARK  status: ('A' for Active; 'I' for Inactive)
REMARK    1  A    between atoms: C1_1  and  C2_2 
REMARK    2  A    between atoms: C2_2  and  N1_3 
REMARK    3  A    between atoms: C6_7  and  C7_8 
REMARK    4  A    between atoms: C7_8  and  C8_10 
ROOT
ATOM      1  N1  <0> d          -0.744   3.154   0.026  0.00  0.00    -0.354 N 
ATOM      2  C3  <0> d          -1.120   1.859   0.017  0.00  0.00    -0.020 A 
ATOM      3  C4  <0> d          -0.013   1.076   0.008  0.00  0.00    -0.066 A 
ATOM      4  C5  <0> d           1.105   1.913   0.002  0.00  0.00    -0.052 A 
ATOM      5  C6  <0> d           0.634   3.214   0.013  0.00  0.00     0.080 A 
ATOM      6  H6  <0> d          -2.139   1.503   0.019  0.00  0.00     0.111 H 
ATOM      7  H7  <0> d           0.002  -0.004   0.002  0.00  0.00     0.085 H 
ATOM      8  H8  <0> d           2.139   1.603  -0.010  0.00  0.00     0.087 H 
ENDROOT
BRANCH   1   9
ATOM      9  C2  <0> d          -1.648   4.306   0.041  0.00  0.00    -0.004 C 
ATOM     10  H4  <0> d          -2.601   4.014   0.483  0.00  0.00     0.064 H 
ATOM     11  H5  <0> d          -1.205   5.109   0.630  0.00  0.00     0.064 H 
BRANCH   9  12
ATOM     12  C1  <0> d          -1.878   4.793  -1.391  0.00  0.00    -0.061 C 
ATOM     13  H1  <0> d          -2.551   5.650  -1.380  0.00  0.00     0.029 H 
ATOM     14  H2  <0> d          -0.925   5.085  -1.833  0.00  0.00     0.029 H 
ATOM     15  H3  <0> d          -2.321   3.990  -1.981  0.00  0.00     0.029 H 
ENDBRANCH   9  12
ENDBRANCH   1   9
BRANCH   5  16
ATOM     16  C7  <0> d           1.420   4.389   0.013  0.00  0.00     0.172 C 
ATOM     17  O1  <0> d           0.884   5.478   0.024  0.00  0.00    -0.291 OA
BRANCH  16  18
ATOM     18  C8  <0> d           2.924   4.289  -0.003  0.00  0.00    -0.015 C 
ATOM     19  H9  <0> d           3.194   3.326  -0.011  0.00  0.00     0.038 H 
ATOM     20  H10 <0> d           3.312   4.782  -0.893  0.00  0.00     0.038 H 
ATOM     21  H11 <0> d           3.329   4.772   0.886  0.00  0.00     0.038 H 
ENDBRANCH  16  18
ENDBRANCH   5  16
TORSDOF 4
