REMARK  3 active torsions:
REMARK  status: ('A' for Active; 'I' for Inactive)
REMARK    1  A    between atoms: C1_1  and  O1_2 
REMARK    2  A    between atoms: O1_2  and  C2_3 
REMARK    3  A    between atoms: C2_3  and  C3_5 
ROOT
ATOM      1  C3  <0> d           0.002  -0.004   0.002  0.00  0.00     0.037 C 
ATOM      2  H1  <0> d          -0.912  -0.402   0.442  0.00  0.00     0.056 H 
ATOM      3  C4  <0> d           1.228  -0.359   0.880  0.00  0.00    -0.046 C 
ATOM      4  C5  <0> d           1.791   1.034   1.307  0.00  0.00    -0.037 C 
ATOM      5  H2  <0> d           2.811   1.044   1.692  0.00  0.00     0.046 H 
ATOM      6  C6  <0> d           1.524   1.863  -0.003  0.00  0.00    -0.051 C 
ATOM      7  C7  <0> d          -0.019   1.558   0.011  0.00  0.00    -0.025 C 
ATOM      8  H3  <0> d          -0.619   2.037  -0.763  0.00  0.00     0.047 H 
ATOM      9  C8  <0> d          -0.344   1.918   1.465  0.00  0.00    -0.101 C 
ATOM     10  C9  <0> d           0.699   1.617   2.212  0.00  0.00    -0.102 C 
ATOM     11  H7  <0> d           0.920  -0.932   1.754  0.00  0.00     0.035 H 
ATOM     12  H8  <0> d           1.966  -0.912   0.300  0.00  0.00     0.035 H 
ATOM     13  H9  <0> d           2.025   1.441  -0.873  0.00  0.00     0.035 H 
ATOM     14  H10 <0> d           1.741   2.923   0.123  0.00  0.00     0.035 H 
ATOM     15  H11 <0> d          -1.271   2.347   1.818  0.00  0.00     0.077 H 
ATOM     16  H12 <0> d           0.772   1.756   3.281  0.00  0.00     0.076 H 
ENDROOT
BRANCH   1  17
ATOM     17  C2  <0> d           0.187  -0.524  -1.401  0.00  0.00     0.263 C 
ATOM     18  O2  <0> d           0.294   0.250  -2.322  0.00  0.00    -0.265 OA
BRANCH  17  19
ATOM     19  O1  <0> d           0.232  -1.846  -1.626  0.00  0.00    -0.326 OA
BRANCH  19  20
ATOM     20  C1  <0> d           0.412  -2.275  -3.001  0.00  0.00     0.013 C 
ATOM     21  H4  <0> d           0.432  -3.364  -3.043  0.00  0.00     0.067 H 
ATOM     22  H5  <0> d          -0.413  -1.903  -3.609  0.00  0.00     0.067 H 
ATOM     23  H6  <0> d           1.353  -1.880  -3.385  0.00  0.00     0.067 H 
ENDBRANCH  19  20
ENDBRANCH  17  19
ENDBRANCH   1  17
TORSDOF 3
