REMARK  1 active torsions:
REMARK  status: ('A' for Active; 'I' for Inactive)
REMARK    1  A    between atoms: C4_4  and  C7_7 
ROOT
ATOM      1  C1  <0> d          -4.976   5.035   0.077  0.00  0.00    -0.083 A 
ATOM      2  C2  <0> d          -4.935   3.653   0.069  0.00  0.00    -0.082 A 
ATOM      3  C3  <0> d          -3.721   2.997   0.054  0.00  0.00    -0.071 A 
ATOM      4  C4  <0> d          -2.535   3.729   0.046  0.00  0.00    -0.007 A 
ATOM      5  C5  <0> d          -2.583   5.122   0.060  0.00  0.00    -0.071 A 
ATOM      6  C6  <0> d          -3.803   5.768   0.070  0.00  0.00    -0.082 A 
ATOM      7  H1  <0> d          -5.929   5.545   0.089  0.00  0.00     0.083 H 
ATOM      8  H2  <0> d          -5.854   3.086   0.075  0.00  0.00     0.083 H 
ATOM      9  H3  <0> d          -3.690   1.917   0.047  0.00  0.00     0.084 H 
ATOM     10  H4  <0> d          -1.668   5.695   0.059  0.00  0.00     0.084 H 
ATOM     11  H5  <0> d          -3.842   6.847   0.077  0.00  0.00     0.083 H 
ENDROOT
BRANCH   4  12
ATOM     12  C7  <0> d          -1.228   3.030   0.030  0.00  0.00     0.069 A 
ATOM     13  N2  <0> d          -1.172   1.700   0.017  0.00  0.00    -0.241 NA
ATOM     14  C10 <0> d          -0.013   1.076   0.008  0.00  0.00     0.086 A 
ATOM     15  N1  <0> d           1.131   1.732   0.001  0.00  0.00    -0.254 NA
ATOM     16  H8  <0> d           0.002  -0.004   0.002  0.00  0.00     0.146 H 
ATOM     17  C9  <0> d           1.159   3.056   0.007  0.00  0.00     0.006 A 
ATOM     18  C8  <0> d          -0.034   3.756   0.023  0.00  0.00    -0.037 A 
ATOM     19  H7  <0> d           2.102   3.582   0.001  0.00  0.00     0.114 H 
ATOM     20  H6  <0> d          -0.042   4.836   0.029  0.00  0.00     0.089 H 
ENDBRANCH   4  12
TORSDOF 1
