REMARK  3 active torsions:
REMARK  status: ('A' for Active; 'I' for Inactive)
REMARK    1  A    between atoms: C1_1  and  C2_2 
REMARK    2  A    between atoms: C5_6  and  O3_10 
REMARK    3  A    between atoms: C6_7  and  C7_9 
ROOT
ATOM      1  C2  <0> d           1.128   3.309   0.009  0.00  0.00     0.053 A 
ATOM      2  C3  <0> d           1.191   1.962   0.001  0.00  0.00    -0.004 A 
ATOM      3  C4  <0> d          -0.015   1.218   0.009  0.00  0.00     0.209 A 
ATOM      4  O1  <0> d           0.002  -0.004   0.002  0.00  0.00    -0.285 OA
ATOM      5  C5  <0> d          -1.244   1.932   0.018  0.00  0.00     0.145 A 
ATOM      6  C6  <0> d          -1.214   3.283   0.030  0.00  0.00     0.086 A 
ATOM      7  O2  <0> d          -0.049   3.944   0.023  0.00  0.00    -0.317 OA
ATOM      8  H4  <0> d           2.147   1.459  -0.010  0.00  0.00     0.093 H 
ENDROOT
BRANCH   1   9
ATOM      9  C1  <0> d           2.404   4.112   0.000  0.00  0.00    -0.031 C 
ATOM     10  H1  <0> d           2.701   4.310  -1.029  0.00  0.00     0.036 H 
ATOM     11  H2  <0> d           2.242   5.056   0.520  0.00  0.00     0.036 H 
ATOM     12  H3  <0> d           3.190   3.549   0.504  0.00  0.00     0.036 H 
ENDBRANCH   1   9
BRANCH   6  13
ATOM     13  C7  <0> d          -2.508   4.055   0.046  0.00  0.00    -0.029 C 
ATOM     14  H5  <0> d          -2.294   5.123   0.050  0.00  0.00     0.036 H 
ATOM     15  H6  <0> d          -3.092   3.804  -0.840  0.00  0.00     0.036 H 
ATOM     16  H7  <0> d          -3.075   3.796   0.940  0.00  0.00     0.036 H 
ENDBRANCH   6  13
BRANCH   5  17
ATOM     17  O3  <0> d          -2.431   1.266   0.020  0.00  0.00    -0.355 OA
ATOM     18  H8  <0> d          -2.770   1.069   0.904  0.00  0.00     0.218 HD
ENDBRANCH   5  17
TORSDOF 3
