REMARK  2 active torsions:
REMARK  status: ('A' for Active; 'I' for Inactive)
REMARK    1  A    between atoms: C7_7  and  N2_12 
REMARK    2  A    between atoms: C10_10  and  N1_11 
ROOT
ATOM      1  C1  <0> d           3.625  -2.097  -0.043  0.00  0.00    -0.082 A 
ATOM      2  C2  <0> d           3.623  -0.704  -0.035  0.00  0.00    -0.082 A 
ATOM      3  C3  <0> d           2.454  -0.005  -0.021  0.00  0.00    -0.070 A 
ATOM      4  C4  <0> d           1.231  -0.696  -0.013  0.00  0.00     0.003 A 
ATOM      5  C5  <0> d           1.233  -2.112  -0.021  0.00  0.00     0.003 A 
ATOM      6  C6  <0> d           2.458  -2.799  -0.036  0.00  0.00    -0.070 A 
ATOM      7  C7  <0> d           0.006  -2.808  -0.014  0.00  0.00     0.037 A 
ATOM      8  C8  <0> d          -1.177  -2.104   0.001  0.00  0.00    -0.055 A 
ATOM      9  C9  <0> d          -1.179  -0.712   0.015  0.00  0.00    -0.055 A 
ATOM     10  C10 <0> d           0.002  -0.004   0.002  0.00  0.00     0.037 A 
ATOM     11  H1  <0> d           4.565  -2.628  -0.054  0.00  0.00     0.083 H 
ATOM     12  H2  <0> d           4.561  -0.170  -0.041  0.00  0.00     0.083 H 
ATOM     13  H3  <0> d           2.467   1.075  -0.015  0.00  0.00     0.084 H 
ATOM     14  H4  <0> d           2.475  -3.879  -0.042  0.00  0.00     0.084 H 
ATOM     15  H5  <0> d          -2.116  -2.639   0.007  0.00  0.00     0.087 H 
ATOM     16  H6  <0> d          -2.119  -0.180   0.032  0.00  0.00     0.087 H 
ENDROOT
BRANCH   7  17
ATOM     17  N2  <0> d          -0.008  -4.206  -0.021  0.00  0.00    -0.398 N 
ATOM     18  H9  <0> d          -0.967  -4.746  -0.015  0.00  0.00     0.156 HD
ATOM     19  H10 <0> d           0.939  -4.766  -0.032  0.00  0.00     0.156 HD
ENDBRANCH   7  17
BRANCH  10  20
ATOM     20  N1  <0> d          -0.017   1.394   0.010  0.00  0.00    -0.398 N 
ATOM     21  H7  <0> d          -0.977   1.931   0.022  0.00  0.00     0.156 HD
ATOM     22  H8  <0> d           0.928   1.956   0.004  0.00  0.00     0.156 HD
ENDBRANCH  10  20
TORSDOF 2
