REMARK  4 active torsions:
REMARK  status: ('A' for Active; 'I' for Inactive)
REMARK    1  A    between atoms: C1_1  and  O1_2 
REMARK    2  A    between atoms: O1_2  and  C2_3 
REMARK    3  A    between atoms: C6_7  and  O2_9 
REMARK    4  A    between atoms: O2_9  and  C8_10 
ROOT
ATOM      1  C2  <0> d          -0.787   2.892   1.346  0.00  0.00     0.071 A 
ATOM      2  C3  <0> d          -0.253   3.750   0.396  0.00  0.00    -0.048 A 
ATOM      3  C4  <0> d          -0.364   5.118   0.557  0.00  0.00    -0.040 A 
ATOM      4  C5  <0> d          -0.999   5.635   1.672  0.00  0.00     0.149 A 
ATOM      5  C6  <0> d          -1.531   4.780   2.628  0.00  0.00     0.109 A 
ATOM      6  C7  <0> d          -1.424   3.408   2.465  0.00  0.00    -0.016 A 
ATOM      7  F1  <0> d          -1.103   6.973   1.831  0.00  0.00    -0.203 F 
ATOM      8  H4  <0> d           0.247   3.348  -0.473  0.00  0.00     0.087 H 
ATOM      9  H5  <0> d           0.049   5.784  -0.185  0.00  0.00     0.088 H 
ATOM     10  H6  <0> d          -1.837   2.741   3.207  0.00  0.00     0.092 H 
ENDROOT
BRANCH   1  11
ATOM     11  O1  <0> d          -0.682   1.547   1.184  0.00  0.00    -0.356 OA
BRANCH  11  12
ATOM     12  C1  <0> d          -0.013   1.086   0.008  0.00  0.00     0.010 C 
ATOM     13  H1  <0> d           0.002  -0.004   0.002  0.00  0.00     0.066 H 
ATOM     14  H2  <0> d           1.010   1.463   0.000  0.00  0.00     0.066 H 
ATOM     15  H3  <0> d          -0.540   1.447  -0.875  0.00  0.00     0.066 H 
ENDBRANCH  11  12
ENDBRANCH   1  11
BRANCH   5  16
ATOM     16  O2  <0> d          -2.155   5.288   3.724  0.00  0.00    -0.353 OA
BRANCH  16  17
ATOM     17  C8  <0> d          -2.679   4.349   4.666  0.00  0.00     0.011 C 
ATOM     18  H7  <0> d          -3.417   3.715   4.175  0.00  0.00     0.066 H 
ATOM     19  H8  <0> d          -1.868   3.731   5.051  0.00  0.00     0.066 H 
ATOM     20  H9  <0> d          -3.150   4.885   5.490  0.00  0.00     0.066 H 
ENDBRANCH  16  17
ENDBRANCH   5  16
TORSDOF 4
