REMARK  2 active torsions:
REMARK  status: ('A' for Active; 'I' for Inactive)
REMARK    1  A    between atoms: C1_1  and  C2_2 
REMARK    2  A    between atoms: C5_7  and  C6_10 
ROOT
ATOM      1  C2  <0> d          -0.735   1.583   1.265  0.00  0.00     0.040 C 
ATOM      2  H1  <0> d          -0.671   2.670   1.317  0.00  0.00     0.083 H 
ATOM      3  C3  <0> d          -0.013   1.086   0.008  0.00  0.00    -0.021 C 
ATOM      4  C4  <0> d          -0.759   1.596  -1.230  0.00  0.00     0.025 C 
ATOM      5  O1  <0> d          -2.131   1.199  -1.141  0.00  0.00    -0.362 OA
ATOM      6  C5  <0> d          -2.793   1.673   0.035  0.00  0.00     0.128 C 
ATOM      7  H2  <0> d          -3.822   1.314   0.041  0.00  0.00     0.128 H 
ATOM      8  O2  <0> d          -2.111   1.187   1.194  0.00  0.00    -0.357 OA
ATOM      9  H6  <0> d           0.002  -0.004   0.002  0.00  0.00     0.040 H 
ATOM     10  H7  <0> d           1.009   1.465   0.000  0.00  0.00     0.040 H 
ATOM     11  H8  <0> d          -0.696   2.683  -1.271  0.00  0.00     0.074 H 
ATOM     12  H9  <0> d          -0.313   1.168  -2.127  0.00  0.00     0.074 H 
ENDROOT
BRANCH   1  13
ATOM     13  C1  <0> d          -0.085   0.968   2.506  0.00  0.00    -0.052 C 
ATOM     14  H3  <0> d           0.964   1.263   2.550  0.00  0.00     0.030 H 
ATOM     15  H4  <0> d          -0.600   1.323   3.399  0.00  0.00     0.030 H 
ATOM     16  H5  <0> d          -0.155  -0.118   2.453  0.00  0.00     0.030 H 
ENDBRANCH   1  13
BRANCH   6  17
ATOM     17  C6  <0> d          -2.786   3.203   0.043  0.00  0.00    -0.031 C 
ATOM     18  H10 <0> d          -3.306   3.573  -0.841  0.00  0.00     0.034 H 
ATOM     19  H11 <0> d          -3.291   3.563   0.939  0.00  0.00     0.034 H 
ATOM     20  H12 <0> d          -1.757   3.561   0.036  0.00  0.00     0.034 H 
ENDBRANCH   6  17
TORSDOF 2
