REMARK  7 active torsions:
REMARK  status: ('A' for Active; 'I' for Inactive)
REMARK    1  A    between atoms: C1_1  and  C2_2 
REMARK    2  A    between atoms: C2_2  and  C3_3 
REMARK    3  A    between atoms: C3_3  and  O2_5 
REMARK    4  A    between atoms: O2_5  and  C4_6 
REMARK    5  A    between atoms: C4_6  and  C5_7 
REMARK    6  A    between atoms: C4_6  and  C6_8 
REMARK    7  A    between atoms: C4_6  and  C7_9 
ROOT
ATOM      1  C4  <0> d           2.367   1.117  -0.015  0.00  0.00     0.060 C 
ENDROOT
BRANCH   1   2
ATOM      2  O2  <0> d           1.139   1.891   0.001  0.00  0.00    -0.311 OA
BRANCH   2   3
ATOM      3  C3  <0> d          -0.014   1.204   0.009  0.00  0.00     0.259 C 
ATOM      4  O1  <0> d           0.002  -0.004   0.002  0.00  0.00    -0.265 OA
BRANCH   3   5
ATOM      5  C2  <0> d          -1.329   1.940   0.019  0.00  0.00     0.013 C 
ATOM      6  H4  <0> d          -1.391   2.561   0.913  0.00  0.00     0.047 H 
ATOM      7  H5  <0> d          -1.400   2.570  -0.867  0.00  0.00     0.047 H 
BRANCH   5   8
ATOM      8  C1  <0> d          -2.479   0.930   0.019  0.00  0.00    -0.068 C 
ATOM      9  H1  <0> d          -2.417   0.309  -0.875  0.00  0.00     0.028 H 
ATOM     10  H2  <0> d          -2.408   0.299   0.905  0.00  0.00     0.028 H 
ATOM     11  H3  <0> d          -3.430   1.462   0.026  0.00  0.00     0.028 H 
ENDBRANCH   5   8
ENDBRANCH   3   5
ENDBRANCH   2   3
ENDBRANCH   1   2
BRANCH   1  12
ATOM     12  C5  <0> d           2.402   0.241  -1.269  0.00  0.00    -0.048 C 
ATOM     13  H6  <0> d           2.360   0.875  -2.155  0.00  0.00     0.031 H 
ATOM     14  H7  <0> d           3.324  -0.340  -1.281  0.00  0.00     0.031 H 
ATOM     15  H8  <0> d           1.547  -0.434  -1.264  0.00  0.00     0.031 H 
ENDBRANCH   1  12
BRANCH   1  16
ATOM     16  C6  <0> d           3.568   2.065  -0.021  0.00  0.00    -0.048 C 
ATOM     17  H9  <0> d           3.543   2.689   0.873  0.00  0.00     0.031 H 
ATOM     18  H10 <0> d           4.490   1.484  -0.033  0.00  0.00     0.031 H 
ATOM     19  H11 <0> d           3.526   2.698  -0.907  0.00  0.00     0.031 H 
ENDBRANCH   1  16
BRANCH   1  20
ATOM     20  C7  <0> d           2.426   0.228   1.229  0.00  0.00    -0.048 C 
ATOM     21  H12 <0> d           1.571  -0.448   1.234  0.00  0.00     0.031 H 
ATOM     22  H13 <0> d           3.348  -0.353   1.218  0.00  0.00     0.031 H 
ATOM     23  H14 <0> d           2.401   0.852   2.123  0.00  0.00     0.031 H 
ENDBRANCH   1  20
TORSDOF 7
