REMARK  3 active torsions:
REMARK  status: ('A' for Active; 'I' for Inactive)
REMARK    1  A    between atoms: C1_1  and  N1_2 
REMARK    2  A    between atoms: C2_3  and  C5_8 
REMARK    3  A    between atoms: C4_5  and  N3_7 
ROOT
ATOM      1  N1  <0> d          -0.698   1.558   1.213  0.00  0.00    -0.266 N 
ATOM      2  C2  <0> d          -2.037   1.813   1.331  0.00  0.00     0.132 A 
ATOM      3  C3  <0> d          -2.258   2.234   2.627  0.00  0.00    -0.003 A 
ATOM      4  C4  <0> d          -1.026   2.236   3.288  0.00  0.00     0.143 A 
ATOM      5  N2  <0> d          -0.099   1.835   2.448  0.00  0.00    -0.155 NA
ATOM      6  H4  <0> d          -3.211   2.515   3.052  0.00  0.00     0.093 H 
ENDROOT
BRANCH   1   7
ATOM      7  C1  <0> d          -0.013   1.086   0.008  0.00  0.00     0.003 C 
ATOM      8  H1  <0> d           0.002  -0.004   0.002  0.00  0.00     0.059 H 
ATOM      9  H2  <0> d           1.010   1.463   0.000  0.00  0.00     0.059 H 
ATOM     10  H3  <0> d          -0.540   1.447  -0.875  0.00  0.00     0.059 H 
ENDBRANCH   1   7
BRANCH   2  11
ATOM     11  C5  <0> d          -3.050   1.664   0.276  0.00  0.00     0.228 C 
ATOM     12  O1  <0> d          -4.214   1.925   0.510  0.00  0.00    -0.643 OA
ATOM     13  O2  <0> d          -2.688   1.237  -0.951  0.00  0.00    -0.643 OA
ENDBRANCH   2  11
BRANCH   4  14
ATOM     14  N3  <0> d          -0.816   2.606   4.622  0.00  0.00    -0.383 N 
ATOM     15  H5  <0> d           0.078   2.576   4.998  0.00  0.00     0.157 HD
ATOM     16  H6  <0> d          -1.563   2.891   5.170  0.00  0.00     0.157 HD
ENDBRANCH   4  14
TORSDOF 3
