REMARK  0 active torsions:
REMARK  status: ('A' for Active; 'I' for Inactive)
ROOT
ATOM      1  C1  <0> d          -2.909   1.938   0.040  0.00  0.00    -0.065 C 
ATOM      2  C2  <0> d          -2.193   1.445  -1.219  0.00  0.00    -0.062 C 
ATOM      3  C3  <0> d          -0.758   1.975  -1.229  0.00  0.00    -0.033 C 
ATOM      4  C4  <0> d          -0.018   1.468   0.010  0.00  0.00     0.125 C 
ATOM      5  C5  <0> d          -0.734   1.961   1.269  0.00  0.00    -0.033 C 
ATOM      6  C6  <0> d          -2.169   1.432   1.280  0.00  0.00    -0.062 C 
ATOM      7  C7  <0> d           0.002  -0.004   0.002  0.00  0.00     0.085 C 
ATOM      8  N1  <0> d           0.018  -1.140  -0.004  0.00  0.00    -0.195 NA
ATOM      9 Cl1  <0> d           1.674   2.092  -0.003  0.00  0.00    -0.103 Cl
ATOM     10  H1  <0> d          -3.941   1.558   0.048  0.00  0.00     0.033 H 
ATOM     11  H2  <0> d          -2.924   3.038   0.046  0.00  0.00     0.033 H 
ATOM     12  H3  <0> d          -2.178   0.345  -1.225  0.00  0.00     0.033 H 
ATOM     13  H4  <0> d          -2.725   1.809  -2.110  0.00  0.00     0.033 H 
ATOM     14  H5  <0> d          -0.243   1.620  -2.134  0.00  0.00     0.037 H 
ATOM     15  H6  <0> d          -0.773   3.075  -1.223  0.00  0.00     0.037 H 
ATOM     16  H7  <0> d          -0.202   1.597   2.160  0.00  0.00     0.037 H 
ATOM     17  H8  <0> d          -0.749   3.061   1.275  0.00  0.00     0.037 H 
ATOM     18  H9  <0> d          -2.684   1.786   2.185  0.00  0.00     0.033 H 
ATOM     19  H10 <0> d          -2.155   0.332   1.274  0.00  0.00     0.033 H 
ENDROOT
TORSDOF 0
