REMARK  3 active torsions:
REMARK  status: ('A' for Active; 'I' for Inactive)
REMARK    1  A    between atoms: N1_6  and  C5_7 
REMARK    2  A    between atoms: C5_7  and  C6_8 
REMARK    3  A    between atoms: C6_8  and  C7_9 
ROOT
ATOM      1  C1  <0> d          -0.018   1.466   0.010  0.00  0.00     0.133 C 
ATOM      2  C2  <0> d           1.420   1.990  -0.001  0.00  0.00     0.044 C 
ATOM      3  O1  <0> d           2.127   1.452   1.120  0.00  0.00    -0.388 OA
ATOM      4  C3  <0> d           2.167   0.023   1.143  0.00  0.00     0.044 C 
ATOM      5  C4  <0> d           0.736  -0.521   1.166  0.00  0.00     0.133 C 
ATOM      6  N1  <0> d           0.002  -0.004   0.002  0.00  0.00     0.093 N 
ATOM      7  H1  <0> d          -0.527   1.818   0.907  0.00  0.00     0.083 H 
ATOM      8  H2  <0> d          -0.544   1.828  -0.873  0.00  0.00     0.083 H 
ATOM      9  H3  <0> d           1.913   1.683  -0.923  0.00  0.00     0.077 H 
ATOM     10  H4  <0> d           1.411   3.079   0.063  0.00  0.00     0.077 H 
ATOM     11  H5  <0> d           2.681  -0.342   0.254  0.00  0.00     0.077 H 
ATOM     12  H6  <0> d           2.698  -0.312   2.034  0.00  0.00     0.077 H 
ATOM     13  H7  <0> d           0.760  -1.611   1.126  0.00  0.00     0.083 H 
ATOM     14  H8  <0> d           0.239  -0.201   2.082  0.00  0.00     0.083 H 
ENDROOT
BRANCH   6  15
ATOM     15  C5  <0> d          -1.361  -0.549  -0.045  0.00  0.00     0.122 C 
ATOM     16  H9  <0> d          -1.860  -0.363   0.906  0.00  0.00     0.080 H 
ATOM     17  H10 <0> d          -1.918  -0.065  -0.848  0.00  0.00     0.080 H 
BRANCH  15  18
ATOM     18  C6  <0> d          -1.300  -2.056  -0.303  0.00  0.00     0.041 C 
ATOM     19  H11 <0> d          -0.801  -2.242  -1.254  0.00  0.00     0.051 H 
ATOM     20  H12 <0> d          -0.743  -2.539   0.500  0.00  0.00     0.051 H 
BRANCH  18  21
ATOM     21  C7  <0> d          -2.699  -2.615  -0.351  0.00  0.00     0.174 C 
ATOM     22  O2  <0> d          -3.656  -1.876  -0.194  0.00  0.00    -0.648 OA
ATOM     23  O3  <0> d          -2.873  -3.805  -0.547  0.00  0.00    -0.648 OA
ENDBRANCH  18  21
ENDBRANCH  15  18
ENDBRANCH   6  15
TORSDOF 3
