REMARK  2 active torsions:
REMARK  status: ('A' for Active; 'I' for Inactive)
REMARK    1  A    between atoms: C3_3  and  N2_10 
REMARK    2  A    between atoms: C4_4  and  O1_9 
ROOT
ATOM      1  C1  <0> d          -0.017   1.393   0.010  0.00  0.00    -0.061 A 
ATOM      2  C2  <0> d           1.167   2.099   0.002  0.00  0.00    -0.053 A 
ATOM      3  C3  <0> d           2.381   1.423  -0.013  0.00  0.00     0.059 A 
ATOM      4  C4  <0> d           2.407   0.027  -0.021  0.00  0.00     0.093 A 
ATOM      5  C5  <0> d           1.224  -0.684  -0.013  0.00  0.00    -0.029 A 
ATOM      6  C6  <0> d           0.002  -0.004   0.002  0.00  0.00     0.047 A 
ATOM      7  C7  <0> d          -1.227  -0.738   0.010  0.00  0.00     0.099 C 
ATOM      8  N1  <0> d          -2.203  -1.321   0.017  0.00  0.00    -0.191 NA
ATOM      9  H1  <0> d          -0.959   1.920   0.026  0.00  0.00     0.086 H 
ATOM     10  H2  <0> d           1.151   3.178   0.008  0.00  0.00     0.087 H 
ATOM     11  H3  <0> d           1.242  -1.764  -0.020  0.00  0.00     0.090 H 
ENDROOT
BRANCH   4  12
ATOM     12  O1  <0> d           3.597  -0.631  -0.036  0.00  0.00    -0.358 OA
ATOM     13  H4  <0> d           3.950  -0.826   0.843  0.00  0.00     0.217 HD
ENDBRANCH   4  12
BRANCH   3  14
ATOM     14  N2  <0> d           3.577   2.141  -0.021  0.00  0.00    -0.397 N 
ATOM     15  H5  <0> d           3.560   3.111  -0.016  0.00  0.00     0.156 HD
ATOM     16  H6  <0> d           4.425   1.671  -0.032  0.00  0.00     0.156 HD
ENDBRANCH   3  14
TORSDOF 2
