REMARK  2 active torsions:
REMARK  status: ('A' for Active; 'I' for Inactive)
REMARK    1  A    between atoms: C1_1  and  S1_2 
REMARK    2  A    between atoms: S1_2  and  C2_4 
ROOT
ATOM      1  C2  <0> d          -1.702  -0.454   0.016  0.00  0.00     0.237 A 
ATOM      2  N1  <0> d          -2.461  -0.645  -1.062  0.00  0.00    -0.213 NA
ATOM      3  H1  <0> d          -4.484  -1.197   1.200  0.00  0.00     0.190 HD
ATOM      4  C3  <0> d          -3.675  -0.968  -0.699  0.00  0.00     0.083 A 
ATOM      5  N2  <0> d          -3.716  -0.990   0.645  0.00  0.00    -0.269 N 
ATOM      6  N3  <0> d          -2.424  -0.658   1.085  0.00  0.00    -0.144 NA
ATOM      7  H5  <0> d          -4.500  -1.181  -1.362  0.00  0.00     0.145 H 
ENDROOT
BRANCH   1   8
ATOM      8  S1  <0> d           0.002  -0.004   0.002  0.00  0.00     0.085 S 
ATOM      9  O1  <0> d           0.493  -0.478   1.249  0.00  0.00    -0.250 OA
BRANCH   8  10
ATOM     10  C1  <0> d          -0.022   1.810   0.012  0.00  0.00    -0.001 C 
ATOM     11  H2  <0> d           1.000   2.187   0.004  0.00  0.00     0.046 H 
ATOM     12  H3  <0> d          -0.550   2.171  -0.871  0.00  0.00     0.046 H 
ATOM     13  H4  <0> d          -0.533   2.161   0.909  0.00  0.00     0.046 H 
ENDBRANCH   8  10
ENDBRANCH   1   8
TORSDOF 2
