REMARK  2 active torsions:
REMARK  status: ('A' for Active; 'I' for Inactive)
REMARK    1  A    between atoms: C1_1  and  C2_2 
REMARK    2  A    between atoms: N2_8  and  C5_9 
ROOT
ATOM      1  C2  <0> d          -0.110   1.827   2.417  0.00  0.00     0.029 A 
ATOM      2  C3  <0> d          -1.064   2.238   3.276  0.00  0.00     0.007 A 
ATOM      3  C4  <0> d          -2.303   2.230   2.593  0.00  0.00     0.261 A 
ATOM      4  O1  <0> d          -3.384   2.543   3.059  0.00  0.00    -0.267 OA
ATOM      5  N1  <0> d          -2.070   1.819   1.330  0.00  0.00    -0.265 N 
ATOM      6  H1  <0> d          -2.902   1.744   0.613  0.00  0.00     0.190 HD
ATOM      7  N2  <0> d          -0.698   1.558   1.213  0.00  0.00    -0.298 N 
ATOM      8  H5  <0> d          -0.910   2.524   4.306  0.00  0.00     0.095 H 
ENDROOT
BRANCH   1   9
ATOM      9  C1  <0> d           1.357   1.687   2.730  0.00  0.00    -0.036 C 
ATOM     10  H2  <0> d           1.537   1.974   3.777  0.00  0.00     0.035 H 
ATOM     11  H3  <0> d           1.938   2.344   2.066  0.00  0.00     0.035 H 
ATOM     12  H4  <0> d           1.667   0.643   2.577  0.00  0.00     0.035 H 
ENDBRANCH   1   9
BRANCH   7  13
ATOM     13  C5  <0> d          -0.013   1.086   0.008  0.00  0.00     0.001 C 
ATOM     14  H6  <0> d          -0.744   0.958  -0.804  0.00  0.00     0.059 H 
ATOM     15  H7  <0> d           0.475   0.122   0.217  0.00  0.00     0.059 H 
ATOM     16  H8  <0> d           0.746   1.822  -0.295  0.00  0.00     0.059 H 
ENDBRANCH   7  13
TORSDOF 2
