REMARK  4 active torsions:
REMARK  status: ('A' for Active; 'I' for Inactive)
REMARK    1  A    between atoms: C1_1  and  C2_2 
REMARK    2  A    between atoms: C2_2  and  C3_3 
REMARK    3  A    between atoms: C3_3  and  O1_4 
REMARK    4  A    between atoms: O1_4  and  C4_5 
ROOT
ATOM      1  C4  <0> d           1.341  -2.530  -2.323  0.00  0.00     0.068 A 
ATOM      2  C5  <0> d           1.908  -1.761  -3.329  0.00  0.00    -0.048 A 
ATOM      3  C6  <0> d           2.522  -2.376  -4.404  0.00  0.00    -0.043 A 
ATOM      4  C7  <0> d           2.570  -3.757  -4.477  0.00  0.00     0.116 A 
ATOM      5  C8  <0> d           2.005  -4.526  -3.473  0.00  0.00    -0.043 A 
ATOM      6  C9  <0> d           1.396  -3.914  -2.394  0.00  0.00    -0.048 A 
ATOM      7  F1  <0> d           3.170  -4.357  -5.529  0.00  0.00    -0.206 F 
ATOM      8  H8  <0> d           1.870  -0.684  -3.272  0.00  0.00     0.087 H 
ATOM      9  H9  <0> d           2.963  -1.778  -5.187  0.00  0.00     0.088 H 
ATOM     10  H10 <0> d           2.043  -5.603  -3.532  0.00  0.00     0.088 H 
ATOM     11  H11 <0> d           0.959  -4.513  -1.609  0.00  0.00     0.087 H 
ENDROOT
BRANCH   1  12
ATOM     12  O1  <0> d           0.738  -1.926  -1.265  0.00  0.00    -0.351 OA
BRANCH  12  13
ATOM     13  C3  <0> d           0.718  -0.497  -1.257  0.00  0.00     0.026 C 
ATOM     14  H6  <0> d           0.191  -0.136  -2.140  0.00  0.00     0.075 H 
ATOM     15  H7  <0> d           1.741  -0.120  -1.264  0.00  0.00     0.075 H 
BRANCH  13  16
ATOM     16  C2  <0> d           0.002  -0.004   0.002  0.00  0.00    -0.048 C 
ATOM     17  H4  <0> d           0.529  -0.365   0.885  0.00  0.00     0.035 H 
ATOM     18  H5  <0> d          -1.020  -0.381   0.010  0.00  0.00     0.035 H 
BRANCH  16  19
ATOM     19  C1  <0> d          -0.019   1.526   0.010  0.00  0.00    -0.075 C 
ATOM     20  H1  <0> d           1.004   1.903   0.003  0.00  0.00     0.027 H 
ATOM     21  H2  <0> d          -0.546   1.887  -0.873  0.00  0.00     0.027 H 
ATOM     22  H3  <0> d          -0.529   1.877   0.907  0.00  0.00     0.027 H 
ENDBRANCH  16  19
ENDBRANCH  13  16
ENDBRANCH  12  13
ENDBRANCH   1  12
TORSDOF 4
