REMARK  4 active torsions:
REMARK  status: ('A' for Active; 'I' for Inactive)
REMARK    1  A    between atoms: C1_1  and  C2_2 
REMARK    2  A    between atoms: C4_5  and  O1_12 
REMARK    3  A    between atoms: C6_8  and  C8_10 
REMARK    4  A    between atoms: C6_8  and  C9_11 
ROOT
ATOM      1  C2  <0> d           0.763  -2.041   1.233  0.00  0.00    -0.055 C 
ATOM      2  H1  <0> d           1.273  -2.392   0.336  0.00  0.00     0.039 H 
ATOM      3  C3  <0> d           0.742  -0.511   1.242  0.00  0.00    -0.038 C 
ATOM      4  C4  <0> d           0.002  -0.004   0.002  0.00  0.00     0.036 C 
ATOM      5  H2  <0> d           0.512  -0.356  -0.895  0.00  0.00     0.083 H 
ATOM      6  C5  <0> d          -1.433  -0.534   0.013  0.00  0.00    -0.035 C 
ATOM      7  C6  <0> d          -1.413  -2.063   0.004  0.00  0.00    -0.045 C 
ATOM      8  C7  <0> d          -0.673  -2.570   1.244  0.00  0.00    -0.056 C 
ATOM      9  H6  <0> d           1.765  -0.134   1.234  0.00  0.00     0.037 H 
ATOM     10  H7  <0> d           0.232  -0.159   2.138  0.00  0.00     0.037 H 
ATOM     11  H8  <0> d          -1.944  -0.182   0.910  0.00  0.00     0.037 H 
ATOM     12  H9  <0> d          -1.960  -0.173  -0.870  0.00  0.00     0.037 H 
ATOM     13  H10 <0> d          -1.183  -2.219   2.141  0.00  0.00     0.034 H 
ATOM     14  H11 <0> d          -0.658  -3.660   1.238  0.00  0.00     0.034 H 
ENDROOT
BRANCH   7  15
ATOM     15  C8  <0> d          -2.848  -2.593   0.015  0.00  0.00    -0.069 C 
ATOM     16  H12 <0> d          -3.375  -2.232  -0.868  0.00  0.00     0.028 H 
ATOM     17  H13 <0> d          -2.833  -3.683   0.009  0.00  0.00     0.028 H 
ATOM     18  H14 <0> d          -3.358  -2.241   0.912  0.00  0.00     0.028 H 
ENDBRANCH   7  15
BRANCH   7  19
ATOM     19  C9  <0> d          -0.696  -2.557  -1.254  0.00  0.00    -0.069 C 
ATOM     20  H15 <0> d           0.326  -2.180  -1.262  0.00  0.00     0.028 H 
ATOM     21  H16 <0> d          -0.682  -3.647  -1.260  0.00  0.00     0.028 H 
ATOM     22  H17 <0> d          -1.224  -2.196  -2.137  0.00  0.00     0.028 H 
ENDBRANCH   7  19
BRANCH   4  23
ATOM     23  O1  <0> d          -0.017   1.425   0.010  0.00  0.00    -0.396 OA
ATOM     24  H18 <0> d           0.861   1.830   0.004  0.00  0.00     0.210 HD
ENDBRANCH   4  23
BRANCH   1  25
ATOM     25  C1  <0> d           1.503  -2.548   2.473  0.00  0.00    -0.073 C 
ATOM     26  H3  <0> d           1.518  -3.638   2.467  0.00  0.00     0.028 H 
ATOM     27  H4  <0> d           2.525  -2.170   2.465  0.00  0.00     0.028 H 
ATOM     28  H5  <0> d           0.993  -2.196   3.369  0.00  0.00     0.028 H 
ENDBRANCH   1  25
TORSDOF 4
