REMARK  2 active torsions:
REMARK  status: ('A' for Active; 'I' for Inactive)
REMARK    1  A    between atoms: C1_1  and  C2_2 
REMARK    2  A    between atoms: C3_4  and  C5_13 
ROOT
ATOM      1  C2  <0> d           0.002  -0.004   0.002  0.00  0.00     0.039 C 
ATOM      2  H1  <0> d           0.511  -0.361  -0.893  0.00  0.00     0.075 H 
ATOM      3  C3  <0> d          -1.434  -0.542   0.030  0.00  0.00     0.029 C 
ATOM      4  H2  <0> d          -1.411  -1.632   0.043  0.00  0.00     0.069 H 
ATOM      5  N1  <0> d          -2.133  -0.054   1.230  0.00  0.00    -0.194 NA
ATOM      6  N2  <0> d          -1.399  -0.281   2.352  0.00  0.00     0.003 N 
ATOM      7  C4  <0> d          -0.059  -0.495   2.371  0.00  0.00     0.755 A 
ATOM      8  N3  <0> d           0.293  -0.673   3.612  0.00  0.00     0.066 NA
ATOM      9  N4  <0> d          -0.737  -0.585   4.383  0.00  0.00    -0.007 NA
ATOM     10  N5  <0> d          -1.801  -0.348   3.688  0.00  0.00    -0.013 NA
ATOM     11  N6  <0> d           0.702  -0.501   1.207  0.00  0.00    -0.214 N 
ATOM     12  H6  <0> d          -2.365   0.923   1.141  0.00  0.00     0.149 HD
ATOM     13  H7  <0> d           1.621  -0.808   1.186  0.00  0.00     0.178 HD
ENDROOT
BRANCH   1  14
ATOM     14  C1  <0> d          -0.019   1.526   0.010  0.00  0.00    -0.055 C 
ATOM     15  H3  <0> d           1.004   1.903   0.003  0.00  0.00     0.030 H 
ATOM     16  H4  <0> d          -0.546   1.887  -0.873  0.00  0.00     0.030 H 
ATOM     17  H5  <0> d          -0.529   1.877   0.907  0.00  0.00     0.030 H 
ENDBRANCH   1  14
BRANCH   3  18
ATOM     18  C5  <0> d          -2.179  -0.065  -1.217  0.00  0.00    -0.058 C 
ATOM     19  H8  <0> d          -1.670  -0.433  -2.108  0.00  0.00     0.029 H 
ATOM     20  H9  <0> d          -3.200  -0.446  -1.199  0.00  0.00     0.029 H 
ATOM     21  H10 <0> d          -2.199   1.025  -1.234  0.00  0.00     0.029 H 
ENDBRANCH   3  18
TORSDOF 2
