REMARK  1 active torsions:
REMARK  status: ('A' for Active; 'I' for Inactive)
REMARK    1  A    between atoms: C4_4  and  C7_7 
ROOT
ATOM      1  C1  <0> d           1.177   1.782   0.000  0.00  0.00    -0.083 A 
ATOM      2  C2  <0> d          -0.013   1.076   0.008  0.00  0.00    -0.082 A 
ATOM      3  C3  <0> d          -1.217   1.748   0.017  0.00  0.00    -0.071 A 
ATOM      4  C4  <0> d          -1.234   3.144   0.031  0.00  0.00    -0.012 A 
ATOM      5  C5  <0> d          -0.030   3.850   0.023  0.00  0.00    -0.071 A 
ATOM      6  C6  <0> d           1.167   3.166   0.007  0.00  0.00    -0.082 A 
ATOM      7  H1  <0> d           2.118   1.251  -0.011  0.00  0.00     0.083 H 
ATOM      8  H2  <0> d           0.002  -0.004   0.002  0.00  0.00     0.083 H 
ATOM      9  H3  <0> d          -2.145   1.195   0.019  0.00  0.00     0.084 H 
ATOM     10  H4  <0> d          -0.036   4.930   0.028  0.00  0.00     0.084 H 
ATOM     11  H5  <0> d           2.100   3.711   0.001  0.00  0.00     0.083 H 
ENDROOT
BRANCH   4  12
ATOM     12  C7  <0> d          -2.520   3.870   0.047  0.00  0.00     0.039 C 
ATOM     13  C10 <0> d          -3.879   3.205   0.057  0.00  0.00    -0.023 C 
ATOM     14  C9  <0> d          -4.850   4.342  -0.343  0.00  0.00    -0.043 C 
ATOM     15  H10 <0> d          -3.883   2.445  -0.593  0.00  0.00     0.042 H 
ATOM     16  H11 <0> d          -4.115   2.833   1.054  0.00  0.00     0.042 H 
ATOM     17  C8  <0> d          -4.034   5.587   0.073  0.00  0.00     0.015 C 
ATOM     18  H8  <0> d          -5.040   4.337  -1.417  0.00  0.00     0.035 H 
ATOM     19  H9  <0> d          -5.782   4.277   0.218  0.00  0.00     0.035 H 
ATOM     20  N1  <0> d          -2.633   5.152   0.060  0.00  0.00    -0.293 NA
ATOM     21  H6  <0> d          -4.188   6.396  -0.641  0.00  0.00     0.067 H 
ATOM     22  H7  <0> d          -4.317   5.908   1.075  0.00  0.00     0.067 H 
ENDBRANCH   4  12
TORSDOF 1
