REMARK  4 active torsions:
REMARK  status: ('A' for Active; 'I' for Inactive)
REMARK    1  A    between atoms: C2_2  and  N2_10 
REMARK    2  A    between atoms: C3_3  and  O2_9 
REMARK    3  A    between atoms: C5_5  and  N1_8 
REMARK    4  A    between atoms: C6_6  and  O1_7 
ROOT
ATOM      1  C1  <0> d          -0.017   1.381   0.010  0.00  0.00    -0.021 A 
ATOM      2  C2  <0> d           1.175   2.091   0.002  0.00  0.00     0.062 A 
ATOM      3  C3  <0> d           2.390   1.411  -0.013  0.00  0.00     0.094 A 
ATOM      4  C4  <0> d           2.409   0.026  -0.020  0.00  0.00    -0.021 A 
ATOM      5  C5  <0> d           1.217  -0.684  -0.012  0.00  0.00     0.062 A 
ATOM      6  C6  <0> d           0.002  -0.004   0.002  0.00  0.00     0.094 A 
ATOM      7  H1  <0> d          -0.959   1.908   0.026  0.00  0.00     0.091 H 
ATOM      8  H2  <0> d           3.351  -0.501  -0.033  0.00  0.00     0.091 H 
ENDROOT
BRANCH   2   9
ATOM      9  N2  <0> d           1.156   3.494   0.009  0.00  0.00    -0.397 N 
ATOM     10  H7  <0> d           0.310   3.967   0.019  0.00  0.00     0.156 HD
ATOM     11  H8  <0> d           1.990   3.990   0.004  0.00  0.00     0.156 HD
ENDBRANCH   2   9
BRANCH   3  12
ATOM     12  O2  <0> d           3.559   2.108  -0.021  0.00  0.00    -0.358 OA
ATOM     13  H6  <0> d           3.906   2.305   0.860  0.00  0.00     0.217 HD
ENDBRANCH   3  12
BRANCH   6  14
ATOM     14  O1  <0> d          -1.167  -0.701   0.010  0.00  0.00    -0.358 OA
ATOM     15  H3  <0> d          -1.514  -0.897  -0.871  0.00  0.00     0.217 HD
ENDBRANCH   6  14
BRANCH   5  16
ATOM     16  N1  <0> d           1.236  -2.086  -0.020  0.00  0.00    -0.397 N 
ATOM     17  H4  <0> d           2.083  -2.560  -0.031  0.00  0.00     0.156 HD
ATOM     18  H5  <0> d           0.403  -2.583  -0.014  0.00  0.00     0.156 HD
ENDBRANCH   5  16
TORSDOF 4
