REMARK  2 active torsions:
REMARK  status: ('A' for Active; 'I' for Inactive)
REMARK    1  A    between atoms: C1_1  and  C2_2 
REMARK    2  A    between atoms: C2_2  and  C3_3 
ROOT
ATOM      1  C3  <0> d          -3.576   3.849   0.058  0.00  0.00     0.043 C 
ATOM      2  N1  <0> d          -2.239   4.080   0.046  0.00  0.00    -0.217 N 
ATOM      3  C4  <0> d          -1.235   3.132   0.031  0.00  0.00     0.090 A 
ATOM      4  C5  <0> d          -1.218   1.744   0.017  0.00  0.00    -0.053 A 
ATOM      5  C6  <0> d          -0.013   1.076   0.008  0.00  0.00    -0.081 A 
ATOM      6  C7  <0> d           1.184   1.782   0.000  0.00  0.00    -0.081 A 
ATOM      7  C8  <0> d           1.189   3.146   0.008  0.00  0.00    -0.051 A 
ATOM      8  C9  <0> d          -0.024   3.850   0.023  0.00  0.00     0.109 A 
ATOM      9  N2  <0> d          -0.327   5.162   0.034  0.00  0.00    -0.130 NA
ATOM     10  N3  <0> d          -1.602   5.330   0.047  0.00  0.00    -0.060 NA
ATOM     11  H3  <0> d          -3.949   2.835   0.056  0.00  0.00     0.127 H 
ATOM     12  H4  <0> d          -2.145   1.190   0.019  0.00  0.00     0.087 H 
ATOM     13  H5  <0> d           0.002  -0.004   0.002  0.00  0.00     0.083 H 
ATOM     14  H6  <0> d           2.121   1.245  -0.012  0.00  0.00     0.083 H 
ATOM     15  H7  <0> d           2.125   3.684   0.002  0.00  0.00     0.087 H 
ENDROOT
BRANCH   1  16
ATOM     16  C2  <0> d          -4.413   4.853   0.071  0.00  0.00    -0.136 C 
BRANCH  16  17
ATOM     17  C1  <0> d          -5.250   5.857   0.084  0.00  0.00    -0.006 C 
ATOM     18  H1  <0> d          -5.587   6.267   1.025  0.00  0.00     0.052 H 
ATOM     19  H2  <0> d          -5.604   6.277  -0.846  0.00  0.00     0.052 H 
ENDBRANCH  16  17
ENDBRANCH   1  16
TORSDOF 2
