REMARK  1 active torsions:
REMARK  status: ('A' for Active; 'I' for Inactive)
REMARK    1  A    between atoms: C3_3  and  N3_9 
ROOT
ATOM      1  C1  <0> d          -0.016   1.314   0.009  0.00  0.00     0.024 A 
ATOM      2  C2  <0> d           1.170   2.048   0.002  0.00  0.00     0.089 A 
ATOM      3  C3  <0> d           2.398   1.358  -0.014  0.00  0.00     0.070 A 
ATOM      4  C4  <0> d           2.363  -0.050  -0.021  0.00  0.00     0.089 A 
ATOM      5  C5  <0> d           1.125  -0.694  -0.013  0.00  0.00     0.024 A 
ATOM      6  N1  <0> d           0.002  -0.004   0.002  0.00  0.00    -0.270 NA
ATOM      7  C6  <0> d           3.578  -0.809  -0.037  0.00  0.00     0.103 C 
ATOM      8  N2  <0> d           4.541  -1.410  -0.050  0.00  0.00    -0.191 NA
ATOM      9  C7  <0> d           1.140   3.480   0.009  0.00  0.00     0.103 C 
ATOM     10  N4  <0> d           1.116   4.616   0.015  0.00  0.00    -0.191 NA
ATOM     11  H1  <0> d          -0.963   1.833   0.026  0.00  0.00     0.117 H 
ATOM     12  H2  <0> d           1.087  -1.773  -0.018  0.00  0.00     0.117 H 
ENDROOT
BRANCH   3  13
ATOM     13  N3  <0> d           3.598   2.040  -0.022  0.00  0.00    -0.397 N 
ATOM     14  H3  <0> d           3.604   3.010  -0.017  0.00  0.00     0.156 HD
ATOM     15  H4  <0> d           4.434   1.550  -0.032  0.00  0.00     0.156 HD
ENDBRANCH   3  13
TORSDOF 1
