REMARK  8 active torsions:
REMARK  status: ('A' for Active; 'I' for Inactive)
REMARK    1  A    between atoms: C1_1  and  C2_2 
REMARK    2  A    between atoms: C2_2  and  C3_3 
REMARK    3  A    between atoms: C2_2  and  C4_4 
REMARK    4  A    between atoms: C2_2  and  C5_5 
REMARK    5  A    between atoms: C5_5  and  C6_6 
REMARK    6  A    between atoms: C5_5  and  C7_8 
REMARK    7  A    between atoms: C6_6  and  O1_7 
REMARK    8  A    between atoms: C7_8  and  O2_9 
ROOT
ATOM      1  C2  <0> d           0.392   3.519   1.266  0.00  0.00    -0.044 C 
ENDROOT
BRANCH   1   2
ATOM      2  C1  <0> d           1.262   3.116   2.458  0.00  0.00    -0.069 C 
ATOM      3  H1  <0> d           2.216   3.641   2.406  0.00  0.00     0.028 H 
ATOM      4  H2  <0> d           0.753   3.378   3.385  0.00  0.00     0.028 H 
ATOM      5  H3  <0> d           1.438   2.040   2.432  0.00  0.00     0.028 H 
ENDBRANCH   1   2
BRANCH   1   6
ATOM      6  C3  <0> d           0.145   5.029   1.304  0.00  0.00    -0.069 C 
ATOM      7  H4  <0> d          -0.475   5.317   0.455  0.00  0.00     0.028 H 
ATOM      8  H5  <0> d          -0.364   5.291   2.231  0.00  0.00     0.028 H 
ATOM      9  H6  <0> d           1.098   5.554   1.251  0.00  0.00     0.028 H 
ENDBRANCH   1   6
BRANCH   1  10
ATOM     10  C4  <0> d          -0.947   2.782   1.340  0.00  0.00    -0.069 C 
ATOM     11  H7  <0> d          -0.767   1.714   1.465  0.00  0.00     0.028 H 
ATOM     12  H8  <0> d          -1.522   3.156   2.187  0.00  0.00     0.028 H 
ATOM     13  H9  <0> d          -1.506   2.951   0.419  0.00  0.00     0.028 H 
ENDBRANCH   1  10
BRANCH   1  14
ATOM     14  C5  <0> d           1.106   3.151  -0.035  0.00  0.00    -0.007 C 
ATOM     15  H10 <0> d           0.447   3.349  -0.880  0.00  0.00     0.047 H 
BRANCH  14  16
ATOM     16  C6  <0> d           1.474   1.666  -0.013  0.00  0.00     0.023 C 
ATOM     17  H11 <0> d           2.040   1.446   0.893  0.00  0.00     0.074 H 
ATOM     18  H12 <0> d           2.081   1.429  -0.887  0.00  0.00     0.074 H 
BRANCH  16  19
ATOM     19  O1  <0> d           0.281   0.880  -0.033  0.00  0.00    -0.400 OA
ATOM     20  H13 <0> d           0.439  -0.074  -0.020  0.00  0.00     0.209 HD
ENDBRANCH  16  19
ENDBRANCH  14  16
BRANCH  14  21
ATOM     21  C7  <0> d           2.378   3.990  -0.174  0.00  0.00     0.023 C 
ATOM     22  H14 <0> d           2.126   5.048  -0.101  0.00  0.00     0.074 H 
ATOM     23  H15 <0> d           3.075   3.727   0.622  0.00  0.00     0.074 H 
BRANCH  21  24
ATOM     24  O2  <0> d           2.984   3.731  -1.442  0.00  0.00    -0.400 OA
ATOM     25  H16 <0> d           3.797   4.230  -1.598  0.00  0.00     0.209 HD
ENDBRANCH  21  24
ENDBRANCH  14  21
ENDBRANCH   1  14
TORSDOF 8
