REMARK  4 active torsions:
REMARK  status: ('A' for Active; 'I' for Inactive)
REMARK    1  A    between atoms: C1_1  and  C2_2 
REMARK    2  A    between atoms: C3_4  and  C4_7 
REMARK    3  A    between atoms: C4_7  and  N3_8 
REMARK       I    between atoms: N3_8  and  C5_9 
REMARK    4  A    between atoms: C5_9  and  C6_11 
ROOT
ATOM      1  C4  <0> d           0.038  -3.206  -1.697  0.00  0.00     0.058 C 
ATOM      2  H4  <0> d          -0.462  -4.055  -1.232  0.00  0.00     0.076 H 
ATOM      3  H5  <0> d          -0.484  -2.936  -2.615  0.00  0.00     0.076 H 
ENDROOT
BRANCH   1   4
ATOM      4  C3  <0> d           0.026  -2.034  -0.750  0.00  0.00     0.190 A 
ATOM      5  N1  <0> d           0.008  -0.776  -1.091  0.00  0.00    -0.208 NA
ATOM      6  C2  <0> d           0.002  -0.004   0.002  0.00  0.00     0.152 A 
ATOM      7  N2  <0> d           0.023  -0.767   1.057  0.00  0.00    -0.112 NA
ATOM      8  O1  <0> d           0.033  -2.107   0.587  0.00  0.00    -0.194 OA
BRANCH   6   9
ATOM      9  C1  <0> d          -0.018   1.503   0.010  0.00  0.00    -0.017 C 
ATOM     10  H1  <0> d           1.004   1.880   0.003  0.00  0.00     0.038 H 
ATOM     11  H2  <0> d          -0.545   1.864  -0.873  0.00  0.00     0.038 H 
ATOM     12  H3  <0> d          -0.529   1.854   0.907  0.00  0.00     0.038 H 
ENDBRANCH   6   9
ENDBRANCH   1   4
BRANCH   1  13
ATOM     13  N3  <0> d           1.423  -3.567  -2.011  0.00  0.00    -0.354 N 
ATOM     14  C5  <0> d           1.679  -4.594  -2.845  0.00  0.00     0.213 C 
ATOM     15  O2  <0> d           0.763  -5.219  -3.337  0.00  0.00    -0.274 OA
ATOM     16  H6  <0> d           2.155  -3.067  -1.618  0.00  0.00     0.162 HD
BRANCH  14  17
ATOM     17  C6  <0> d           3.104  -4.965  -3.167  0.00  0.00    -0.003 C 
ATOM     18  H7  <0> d           3.782  -4.297  -2.638  0.00  0.00     0.040 H 
ATOM     19  H8  <0> d           3.290  -5.993  -2.857  0.00  0.00     0.040 H 
ATOM     20  H9  <0> d           3.269  -4.874  -4.241  0.00  0.00     0.040 H 
ENDBRANCH  14  17
ENDBRANCH   1  13
TORSDOF 4
