REMARK  2 active torsions:
REMARK  status: ('A' for Active; 'I' for Inactive)
REMARK    1  A    between atoms: C1_1  and  O1_2 
REMARK    2  A    between atoms: O1_2  and  C2_3 
ROOT
ATOM      1  C2  <0> d          -0.787   2.890   1.346  0.00  0.00     0.080 A 
ATOM      2  C3  <0> d          -0.259   3.748   0.406  0.00  0.00    -0.050 A 
ATOM      3  C4  <0> d          -0.368   5.126   0.563  0.00  0.00    -0.078 A 
ATOM      4  C5  <0> d          -0.987   5.665   1.649  0.00  0.00    -0.054 A 
ATOM      5  C6  <0> d          -1.535   4.826   2.634  0.00  0.00     0.069 A 
ATOM      6  C7  <0> d          -1.433   3.421   2.480  0.00  0.00     0.026 A 
ATOM      7  C8  <0> d          -1.982   2.584   3.468  0.00  0.00    -0.067 A 
ATOM      8  C9  <0> d          -2.593   3.169   4.541  0.00  0.00    -0.065 A 
ATOM      9  C10 <0> d          -2.659   4.557   4.633  0.00  0.00     0.003 A 
ATOM     10  N1  <0> d          -2.146   5.334   3.710  0.00  0.00    -0.260 NA
ATOM     11  H4  <0> d           0.241   3.346  -0.463  0.00  0.00     0.087 H 
ATOM     12  H5  <0> d           0.049   5.780  -0.189  0.00  0.00     0.083 H 
ATOM     13  H6  <0> d          -1.057   6.737   1.754  0.00  0.00     0.087 H 
ATOM     14  H7  <0> d          -1.922   1.510   3.381  0.00  0.00     0.085 H 
ATOM     15  H8  <0> d          -3.026   2.555   5.318  0.00  0.00     0.085 H 
ATOM     16  H9  <0> d          -3.145   5.005   5.487  0.00  0.00     0.114 H 
ENDROOT
BRANCH   1  17
ATOM     17  O1  <0> d          -0.682   1.547   1.184  0.00  0.00    -0.355 OA
BRANCH  17  18
ATOM     18  C1  <0> d          -0.013   1.086   0.008  0.00  0.00     0.010 C 
ATOM     19  H1  <0> d           0.002  -0.014   0.002  0.00  0.00     0.066 H 
ATOM     20  H2  <0> d           1.019   1.466   0.000  0.00  0.00     0.066 H 
ATOM     21  H3  <0> d          -0.545   1.450  -0.883  0.00  0.00     0.066 H 
ENDBRANCH  17  18
ENDBRANCH   1  17
TORSDOF 2
