REMARK  7 active torsions:
REMARK  status: ('A' for Active; 'I' for Inactive)
REMARK    1  A    between atoms: C1_1  and  C2_2 
REMARK    2  A    between atoms: C2_2  and  C3_3 
REMARK    3  A    between atoms: C3_3  and  C4_4 
REMARK    4  A    between atoms: C4_4  and  N1_5 
REMARK       I    between atoms: N1_5  and  C5_6 
REMARK    5  A    between atoms: C5_6  and  O2_8 
REMARK    6  A    between atoms: O2_8  and  C6_9 
REMARK    7  A    between atoms: C6_9  and  C7_10 
ROOT
ATOM      1  C4  <0> d           2.422   1.185  -0.015  0.00  0.00    -0.003 C 
ATOM      2  H8  <0> d           2.497   0.555   0.871  0.00  0.00     0.064 H 
ATOM      3  H9  <0> d           2.480   0.564  -0.909  0.00  0.00     0.064 H 
ENDROOT
BRANCH   1   4
ATOM      4  C3  <0> d           3.571   2.195  -0.020  0.00  0.00    -0.051 C 
ATOM      5  H6  <0> d           3.497   2.826  -0.906  0.00  0.00     0.035 H 
ATOM      6  H7  <0> d           3.514   2.817   0.874  0.00  0.00     0.035 H 
BRANCH   4   7
ATOM      7  C2  <0> d           4.907   1.448  -0.037  0.00  0.00    -0.067 C 
ATOM      8  H4  <0> d           4.981   0.818   0.849  0.00  0.00     0.032 H 
ATOM      9  H5  <0> d           4.964   0.828  -0.931  0.00  0.00     0.032 H 
BRANCH   7  10
ATOM     10  C1  <0> d           6.056   2.458  -0.043  0.00  0.00    -0.076 C 
ATOM     11  H1  <0> d           5.981   3.089  -0.928  0.00  0.00     0.027 H 
ATOM     12  H2  <0> d           5.998   3.079   0.851  0.00  0.00     0.027 H 
ATOM     13  H3  <0> d           7.007   1.926  -0.054  0.00  0.00     0.027 H 
ENDBRANCH   7  10
ENDBRANCH   4   7
ENDBRANCH   1   4
BRANCH   1  14
ATOM     14  N1  <0> d           1.143   1.901   0.001  0.00  0.00    -0.337 N 
ATOM     15  C5  <0> d          -0.014   1.211   0.009  0.00  0.00     0.360 C 
ATOM     16  O1  <0> d           0.002  -0.004   0.002  0.00  0.00    -0.239 OA
ATOM     17  H10 <0> d           1.130   2.870   0.007  0.00  0.00     0.164 HD
BRANCH  15  18
ATOM     18  O2  <0> d          -1.189   1.868   0.018  0.00  0.00    -0.304 OA
BRANCH  18  19
ATOM     19  C6  <0> d          -2.396   1.061   0.019  0.00  0.00     0.027 C 
ATOM     20  H11 <0> d          -2.417   0.437  -0.874  0.00  0.00     0.074 H 
ATOM     21  H12 <0> d          -2.408   0.427   0.906  0.00  0.00     0.074 H 
BRANCH  19  22
ATOM     22  C7  <0> d          -3.622   1.976   0.030  0.00  0.00    -0.056 C 
ATOM     23  H13 <0> d          -3.602   2.601   0.923  0.00  0.00     0.030 H 
ATOM     24  H14 <0> d          -3.610   2.610  -0.857  0.00  0.00     0.030 H 
ATOM     25  H15 <0> d          -4.528   1.370   0.031  0.00  0.00     0.030 H 
ENDBRANCH  19  22
ENDBRANCH  18  19
ENDBRANCH  15  18
ENDBRANCH   1  14
TORSDOF 7
