REMARK  0 active torsions:
REMARK  status: ('A' for Active; 'I' for Inactive)
ROOT
ATOM      1  C1  <0> d           3.370   2.558  -0.016  0.00  0.00    -0.043 A 
ATOM      2  C2  <0> d           2.472   1.514  -0.014  0.00  0.00    -0.053 A 
ATOM      3  C3  <0> d           1.106   1.773   0.001  0.00  0.00     0.042 A 
ATOM      4  C4  <0> d           0.655   3.105   0.013  0.00  0.00    -0.005 A 
ATOM      5  C5  <0> d          -0.809   3.037   0.026  0.00  0.00    -0.056 A 
ATOM      6  C6  <0> d          -1.141   1.737   0.016  0.00  0.00    -0.022 A 
ATOM      7  N1  <0> d          -0.011   0.966   0.007  0.00  0.00    -0.365 N 
ATOM      8  H1  <0> d           0.002  -0.004   0.002  0.00  0.00     0.165 HD
ATOM      9  C7  <0> d           1.576   4.154   0.009  0.00  0.00    -0.034 A 
ATOM     10  C8  <0> d           2.926   3.875  -0.005  0.00  0.00     0.117 A 
ATOM     11  F1  <0> d           3.822   4.886  -0.008  0.00  0.00    -0.206 F 
ATOM     12  H2  <0> d           4.431   2.351  -0.027  0.00  0.00     0.088 H 
ATOM     13  H3  <0> d           2.829   0.494  -0.023  0.00  0.00     0.087 H 
ATOM     14  H4  <0> d          -1.491   3.874   0.037  0.00  0.00     0.086 H 
ATOM     15  H5  <0> d          -2.152   1.355   0.019  0.00  0.00     0.111 H 
ATOM     16  H6  <0> d           1.234   5.178   0.018  0.00  0.00     0.089 H 
ENDROOT
TORSDOF 0
