REMARK  2 active torsions:
REMARK  status: ('A' for Active; 'I' for Inactive)
REMARK    1  A    between atoms: C1_1  and  C2_2 
REMARK    2  A    between atoms: C1_1  and  O1_9 
ROOT
ATOM      1  C2  <0> d           0.002  -0.004   0.002  0.00  0.00     0.147 A 
ATOM      2  N1  <0> d           1.101  -0.778  -0.007  0.00  0.00    -0.260 N 
ATOM      3  H1  <0> d           2.023  -0.478  -0.010  0.00  0.00     0.190 HD
ATOM      4  N2  <0> d           0.648  -2.108  -0.011  0.00  0.00    -0.140 NA
ATOM      5  C3  <0> d          -0.659  -2.062  -0.005  0.00  0.00     0.242 A 
ATOM      6  N3  <0> d          -1.047  -0.787   0.008  0.00  0.00    -0.200 NA
ATOM      7 Cl1  <0> d          -1.717  -3.438  -0.006  0.00  0.00    -0.040 Cl
ENDROOT
BRANCH   1   8
ATOM      8  C1  <0> d          -0.018   1.503   0.010  0.00  0.00     0.072 C 
ATOM      9  H2  <0> d          -0.545   1.864  -0.873  0.00  0.00     0.086 H 
ATOM     10  H3  <0> d          -0.529   1.854   0.907  0.00  0.00     0.086 H 
BRANCH   8  11
ATOM     11  O1  <0> d           1.322   1.997   0.000  0.00  0.00    -0.393 OA
ATOM     12  H4  <0> d           1.385   2.962   0.005  0.00  0.00     0.209 HD
ENDBRANCH   8  11
ENDBRANCH   1   8
TORSDOF 2
