REMARK  6 active torsions:
REMARK  status: ('A' for Active; 'I' for Inactive)
REMARK    1  A    between atoms: C1_1  and  C2_2 
REMARK    2  A    between atoms: C2_2  and  C3_3 
REMARK    3  A    between atoms: C3_3  and  C4_4 
REMARK    4  A    between atoms: C4_4  and  O2_6 
REMARK    5  A    between atoms: O2_6  and  C5_7 
REMARK    6  A    between atoms: C5_7  and  C6_8 
ROOT
ATOM      1  C4  <0> d          -2.298   5.028  -1.052  0.00  0.00     0.259 C 
ATOM      2  O1  <0> d          -1.628   5.769  -0.374  0.00  0.00    -0.265 OA
ENDROOT
BRANCH   1   3
ATOM      3  C3  <0> d          -3.295   5.596  -2.029  0.00  0.00     0.015 C 
ATOM      4  H6  <0> d          -3.043   5.269  -3.038  0.00  0.00     0.048 H 
ATOM      5  H7  <0> d          -4.295   5.245  -1.773  0.00  0.00     0.048 H 
BRANCH   3   6
ATOM      6  C2  <0> d          -3.259   7.124  -1.964  0.00  0.00    -0.060 C 
ATOM      7  H4  <0> d          -3.512   7.451  -0.956  0.00  0.00     0.033 H 
ATOM      8  H5  <0> d          -2.260   7.475  -2.220  0.00  0.00     0.033 H 
BRANCH   6   9
ATOM      9  C1  <0> d          -4.271   7.700  -2.956  0.00  0.00    -0.076 C 
ATOM     10  H1  <0> d          -4.019   7.373  -3.965  0.00  0.00     0.027 H 
ATOM     11  H2  <0> d          -5.271   7.349  -2.700  0.00  0.00     0.027 H 
ATOM     12  H3  <0> d          -4.246   8.789  -2.910  0.00  0.00     0.027 H 
ENDBRANCH   6   9
ENDBRANCH   3   6
ENDBRANCH   1   3
BRANCH   1  13
ATOM     13  O2  <0> d          -2.155   3.698  -0.936  0.00  0.00    -0.318 OA
BRANCH  13  14
ATOM     14  C5  <0> d          -1.176   3.222   0.025  0.00  0.00     0.043 C 
ATOM     15  H8  <0> d          -1.442   3.576   1.021  0.00  0.00     0.081 H 
ATOM     16  H9  <0> d          -0.190   3.600  -0.243  0.00  0.00     0.081 H 
BRANCH  14  17
ATOM     17  C6  <0> d          -1.156   1.715   0.017  0.00  0.00    -0.089 C 
ATOM     18  C7  <0> d          -0.013   1.076   0.008  0.00  0.00    -0.123 C 
ATOM     19  H11 <0> d           0.002  -0.004   0.002  0.00  0.00     0.066 H 
ATOM     20  H12 <0> d           0.915   1.629   0.002  0.00  0.00     0.066 H 
ATOM     21  H10 <0> d          -2.084   1.163   0.018  0.00  0.00     0.078 H 
ENDBRANCH  14  17
ENDBRANCH  13  14
ENDBRANCH   1  13
TORSDOF 6
