REMARK  3 active torsions:
REMARK  status: ('A' for Active; 'I' for Inactive)
REMARK    1  A    between atoms: C1_1  and  N1_2 
REMARK    2  A    between atoms: N1_2  and  C2_3 
REMARK    3  A    between atoms: C5_6  and  N3_9 
ROOT
ATOM      1  C2  <0> d           0.605  -0.687  -1.052  0.00  0.00     0.122 A 
ATOM      2  C3  <0> d           1.180   0.030  -2.096  0.00  0.00    -0.037 A 
ATOM      3  C4  <0> d           1.780  -0.657  -3.135  0.00  0.00    -0.053 A 
ATOM      4  C5  <0> d           1.775  -2.051  -3.101  0.00  0.00     0.043 A 
ATOM      5  C6  <0> d           1.177  -2.698  -2.030  0.00  0.00     0.029 A 
ATOM      6  N2  <0> d           0.618  -2.010  -1.052  0.00  0.00    -0.241 NA
ATOM      7  H5  <0> d           1.162   1.110  -2.093  0.00  0.00     0.089 H 
ATOM      8  H6  <0> d           2.238  -0.126  -3.957  0.00  0.00     0.087 H 
ATOM      9  H7  <0> d           1.170  -3.777  -1.996  0.00  0.00     0.118 H 
ENDROOT
BRANCH   1  10
ATOM     10  N1  <0> d           0.002  -0.004   0.002  0.00  0.00    -0.379 N 
ATOM     11  H4  <0> d          -0.459  -0.565   0.828  0.00  0.00     0.160 HD
BRANCH  10  12
ATOM     12  C1  <0> d          -0.018   1.461   0.010  0.00  0.00    -0.020 C 
ATOM     13  H1  <0> d          -0.533   1.815   0.915  0.00  0.00     0.056 H 
ATOM     14  H2  <0> d          -0.550   1.825  -0.881  0.00  0.00     0.056 H 
ATOM     15  H3  <0> d           1.014   1.841   0.002  0.00  0.00     0.056 H 
ENDBRANCH  10  12
ENDBRANCH   1  10
BRANCH   4  16
ATOM     16  N3  <0> d           2.366  -2.788  -4.134  0.00  0.00    -0.398 N 
ATOM     17  H8  <0> d           2.358  -3.887  -4.100  0.00  0.00     0.156 HD
ATOM     18  H9  <0> d           2.839  -2.267  -4.980  0.00  0.00     0.156 HD
ENDBRANCH   4  16
TORSDOF 3
