REMARK  1 active torsions:
REMARK  status: ('A' for Active; 'I' for Inactive)
REMARK    1  A    between atoms: C4_5  and  C6_8 
ROOT
ATOM      1  C1  <0> d          -1.327   1.952   0.019  0.00  0.00     0.008 C 
ATOM      2  C2  <0> d          -1.181   3.238   0.838  0.00  0.00     0.020 C 
ATOM      3  N1  <0> d           0.031   3.956   0.450  0.00  0.00    -0.304 NA
ATOM      4  C3  <0> d           1.175   3.313   0.176  0.00  0.00    -0.003 C 
ATOM      5  C4  <0> d           1.199   1.941   0.001  0.00  0.00     0.119 C 
ATOM      6  C5  <0> d          -0.014   1.210   0.009  0.00  0.00     0.147 C 
ATOM      7  O1  <0> d           0.002  -0.004   0.002  0.00  0.00    -0.297 OA
ATOM      8  H1  <0> d          -1.587   2.183  -0.919  0.00  0.00     0.046 H 
ATOM      9  H2  <0> d          -2.096   1.323   0.466  0.00  0.00     0.046 H 
ATOM     10  H3  <0> d          -1.127   2.989   1.898  0.00  0.00     0.067 H 
ATOM     11  H4  <0> d          -2.048   3.874   0.662  0.00  0.00     0.067 H 
ATOM     12  H5  <0> d           1.562   1.996   0.931  0.00  0.00     0.077 H 
ATOM     13  H6  <0> d           2.092   3.876   0.090  0.00  0.00     0.109 H 
ENDROOT
BRANCH   5  14
ATOM     14  C6  <0> d           2.478   1.245  -0.192  0.00  0.00     0.189 C 
ATOM     15  O2  <0> d           3.518   1.875  -0.198  0.00  0.00    -0.647 OA
ATOM     16  O3  <0> d           2.499  -0.092  -0.362  0.00  0.00    -0.647 OA
ENDBRANCH   5  14
TORSDOF 1
