REMARK  7 active torsions:
REMARK  status: ('A' for Active; 'I' for Inactive)
REMARK    1  A    between atoms: C1_1  and  C2_2 
REMARK    2  A    between atoms: C2_2  and  C3_3 
REMARK    3  A    between atoms: C3_3  and  C4_4 
REMARK    4  A    between atoms: C4_4  and  C5_5 
REMARK    5  A    between atoms: C5_5  and  C6_6 
REMARK    6  A    between atoms: C6_6  and  C7_8 
REMARK    7  A    between atoms: C6_6  and  C8_9 
ROOT
ATOM      1  C4  <0> d           0.002  -0.004   0.002  0.00  0.00    -0.064 C 
ATOM      2  H9  <0> d           0.529  -0.365   0.885  0.00  0.00     0.033 H 
ATOM      3  H10 <0> d          -1.020  -0.381   0.010  0.00  0.00     0.033 H 
ENDROOT
BRANCH   1   4
ATOM      4  C3  <0> d          -0.019   1.526   0.010  0.00  0.00    -0.065 C 
ATOM      5  H7  <0> d           1.004   1.903   0.003  0.00  0.00     0.033 H 
ATOM      6  H8  <0> d          -0.546   1.887  -0.873  0.00  0.00     0.033 H 
BRANCH   4   7
ATOM      7  C2  <0> d          -0.735   2.019   1.269  0.00  0.00    -0.069 C 
ATOM      8  H5  <0> d          -1.757   1.642   1.277  0.00  0.00     0.032 H 
ATOM      9  H6  <0> d          -0.208   1.658   2.152  0.00  0.00     0.032 H 
BRANCH   7  10
ATOM     10  C1  <0> d          -0.756   3.549   1.278  0.00  0.00    -0.077 C 
ATOM     11  H2  <0> d          -1.266   3.901   2.174  0.00  0.00     0.027 H 
ATOM     12  H3  <0> d           0.267   3.926   1.270  0.00  0.00     0.027 H 
ATOM     13  H4  <0> d          -1.283   3.910   0.395  0.00  0.00     0.027 H 
ENDBRANCH   7  10
ENDBRANCH   4   7
ENDBRANCH   1   4
BRANCH   1  14
ATOM     14  C5  <0> d           0.718  -0.497  -1.257  0.00  0.00    -0.053 C 
ATOM     15  H11 <0> d           0.191  -0.136  -2.140  0.00  0.00     0.034 H 
ATOM     16  H12 <0> d           1.741  -0.120  -1.264  0.00  0.00     0.034 H 
BRANCH  14  17
ATOM     17  C6  <0> d           0.739  -2.027  -1.265  0.00  0.00     0.027 C 
ATOM     18  H1  <0> d           1.187  -2.390  -0.340  0.00  0.00     0.056 H 
BRANCH  17  19
ATOM     19  C7  <0> d          -0.692  -2.556  -1.380  0.00  0.00    -0.064 C 
ATOM     20  H13 <0> d          -1.140  -2.194  -2.305  0.00  0.00     0.028 H 
ATOM     21  H14 <0> d          -0.677  -3.646  -1.386  0.00  0.00     0.028 H 
ATOM     22  H15 <0> d          -1.278  -2.205  -0.531  0.00  0.00     0.028 H 
ENDBRANCH  17  19
BRANCH  17  23
ATOM     23  C8  <0> d           1.550  -2.512  -2.439  0.00  0.00     0.176 C 
ATOM     24  O1  <0> d           2.058  -1.716  -3.192  0.00  0.00    -0.648 OA
ATOM     25  O2  <0> d           1.706  -3.829  -2.649  0.00  0.00    -0.648 OA
ENDBRANCH  17  23
ENDBRANCH  14  17
ENDBRANCH   1  14
TORSDOF 7
