REMARK  2 active torsions:
REMARK  status: ('A' for Active; 'I' for Inactive)
REMARK    1  A    between atoms: C1_1  and  N1_2 
REMARK    2  A    between atoms: C7_9  and  O1_11 
ROOT
ATOM      1  N1  <0> d           0.002  -0.004   0.002  0.00  0.00    -0.254 N 
ATOM      2  C2  <0> d           0.008  -0.789  -1.118  0.00  0.00     0.160 A 
ATOM      3  C3  <0> d           0.028  -2.126  -0.674  0.00  0.00     0.066 A 
ATOM      4  C4  <0> d           0.037  -3.161  -1.615  0.00  0.00    -0.064 A 
ATOM      5  C5  <0> d           0.026  -2.826  -2.944  0.00  0.00    -0.065 A 
ATOM      6  C6  <0> d           0.006  -1.489  -3.315  0.00  0.00     0.004 A 
ATOM      7  N2  <0> d          -0.002  -0.526  -2.420  0.00  0.00    -0.241 NA
ATOM      8  C7  <0> d           0.034  -2.076   0.787  0.00  0.00     0.196 A 
ATOM      9  N3  <0> d           0.024  -0.819   1.138  0.00  0.00    -0.145 NA
ATOM     10  H4  <0> d           0.053  -4.194  -1.303  0.00  0.00     0.085 H 
ATOM     11  H5  <0> d           0.033  -3.599  -3.699  0.00  0.00     0.085 H 
ATOM     12  H6  <0> d          -0.002  -1.234  -4.364  0.00  0.00     0.114 H 
ENDROOT
BRANCH   1  13
ATOM     13  C1  <0> d          -0.018   1.461   0.010  0.00  0.00     0.004 C 
ATOM     14  H1  <0> d           1.005   1.838   0.002  0.00  0.00     0.059 H 
ATOM     15  H2  <0> d          -0.545   1.822  -0.873  0.00  0.00     0.059 H 
ATOM     16  H3  <0> d          -0.528   1.812   0.907  0.00  0.00     0.059 H 
ENDBRANCH   1  13
BRANCH   8  17
ATOM     17  O1  <0> d           0.052  -3.144   1.628  0.00  0.00    -0.343 OA
ATOM     18  H7  <0> d           0.940  -3.442   1.867  0.00  0.00     0.219 HD
ENDBRANCH   8  17
TORSDOF 2
