REMARK  3 active torsions:
REMARK  status: ('A' for Active; 'I' for Inactive)
REMARK    1  A    between atoms: C1_1  and  C2_2 
REMARK    2  A    between atoms: C4_4  and  O1_9 
REMARK    3  A    between atoms: C7_7  and  N1_8 
ROOT
ATOM      1  C2  <0> d           1.161   3.175   0.008  0.00  0.00    -0.033 A 
ATOM      2  C3  <0> d          -0.046   3.848   0.023  0.00  0.00    -0.043 A 
ATOM      3  C4  <0> d          -1.237   3.137   0.030  0.00  0.00     0.066 A 
ATOM      4  C5  <0> d          -1.218   1.750   0.017  0.00  0.00    -0.049 A 
ATOM      5  C6  <0> d          -0.013   1.076   0.008  0.00  0.00    -0.055 A 
ATOM      6  C7  <0> d           1.181   1.787   0.000  0.00  0.00     0.031 A 
ATOM      7  H4  <0> d          -0.061   4.928   0.029  0.00  0.00     0.088 H 
ATOM      8  H5  <0> d          -2.146   1.198   0.019  0.00  0.00     0.087 H 
ATOM      9  H6  <0> d           0.002  -0.004   0.002  0.00  0.00     0.087 H 
ENDROOT
BRANCH   1  10
ATOM     10  C1  <0> d           2.454   3.947   0.000  0.00  0.00    -0.049 C 
ATOM     11  H1  <0> d           2.757   4.139  -1.029  0.00  0.00     0.033 H 
ATOM     12  H2  <0> d           2.315   4.895   0.521  0.00  0.00     0.033 H 
ATOM     13  H3  <0> d           3.227   3.367   0.504  0.00  0.00     0.033 H 
ENDBRANCH   1  10
BRANCH   6  14
ATOM     14  N1  <0> d           2.402   1.104  -0.015  0.00  0.00    -0.399 N 
ATOM     15  H7  <0> d           2.416   0.134  -0.021  0.00  0.00     0.156 HD
ATOM     16  H8  <0> d           3.235   1.601  -0.021  0.00  0.00     0.156 HD
ENDBRANCH   6  14
BRANCH   3  17
ATOM     17  O1  <0> d          -2.424   3.800   0.044  0.00  0.00    -0.361 OA
ATOM     18  H9  <0> d          -2.775   3.997  -0.835  0.00  0.00     0.217 HD
ENDBRANCH   3  17
TORSDOF 3
