REMARK  1 active torsions:
REMARK  status: ('A' for Active; 'I' for Inactive)
REMARK    1  A    between atoms: C1_1  and  C2_2 
ROOT
ATOM      1  C2  <0> d           1.343  -0.411  -0.012  0.00  0.00     0.054 A 
ATOM      2  C3  <0> d           0.002  -0.004   0.002  0.00  0.00    -0.014 A 
ATOM      3  C4  <0> d          -0.016   1.345   0.009  0.00  0.00     0.128 A 
ATOM      4  N1  <0> d           1.274   1.779  -0.001  0.00  0.00    -0.253 N 
ATOM      5  N2  <0> d           2.101   0.660  -0.013  0.00  0.00    -0.176 NA
ATOM      6  C5  <0> d           1.630   3.199   0.001  0.00  0.00     0.027 C 
ATOM      7  C6  <0> d           0.521   3.985  -0.703  0.00  0.00     0.026 C 
ATOM      8  C7  <0> d          -0.840   3.530  -0.256  0.00  0.00     0.224 C 
ATOM      9  O1  <0> d          -1.731   4.346  -0.146  0.00  0.00    -0.273 OA
ATOM     10  N3  <0> d          -1.094   2.232   0.030  0.00  0.00    -0.312 N 
ATOM     11  H4  <0> d          -0.861  -0.653   0.006  0.00  0.00     0.092 H 
ATOM     12  H5  <0> d           1.731   3.550   1.028  0.00  0.00     0.068 H 
ATOM     13  H6  <0> d           2.572   3.340  -0.528  0.00  0.00     0.068 H 
ATOM     14  H7  <0> d           0.635   5.045  -0.475  0.00  0.00     0.049 H 
ATOM     15  H8  <0> d           0.609   3.840  -1.779  0.00  0.00     0.049 H 
ATOM     16  H9  <0> d          -1.991   1.928   0.239  0.00  0.00     0.170 HD
ENDROOT
BRANCH   1  17
ATOM     17  C1  <0> d           1.831  -1.837  -0.024  0.00  0.00    -0.034 C 
ATOM     18  H1  <0> d           1.940  -2.175  -1.054  0.00  0.00     0.035 H 
ATOM     19  H2  <0> d           2.795  -1.895   0.482  0.00  0.00     0.035 H 
ATOM     20  H3  <0> d           1.111  -2.472   0.492  0.00  0.00     0.035 H 
ENDBRANCH   1  17
TORSDOF 1
