REMARK  3 active torsions:
REMARK  status: ('A' for Active; 'I' for Inactive)
REMARK    1  A    between atoms: C1_1  and  S1_2 
REMARK    2  A    between atoms: S1_2  and  C2_3 
REMARK    3  A    between atoms: C4_5  and  N3_9 
ROOT
ATOM      1  C2  <0> d          -3.610   1.667   0.028  0.00  0.00     0.098 A 
ATOM      2  C3  <0> d          -2.422   0.941   0.019  0.00  0.00    -0.005 A 
ATOM      3  C4  <0> d          -1.221   1.643   0.017  0.00  0.00     0.125 A 
ATOM      4  N1  <0> d          -1.250   2.974   0.030  0.00  0.00    -0.225 NA
ATOM      5  C5  <0> d          -2.395   3.626   0.033  0.00  0.00     0.090 A 
ATOM      6  N2  <0> d          -3.554   2.998   0.035  0.00  0.00    -0.235 NA
ATOM      7  H4  <0> d          -2.433  -0.139   0.013  0.00  0.00     0.093 H 
ATOM      8  H5  <0> d          -2.384   4.706   0.039  0.00  0.00     0.146 H 
ENDROOT
BRANCH   1   9
ATOM      9  S1  <0> d          -5.165   0.838   0.032  0.00  0.00    -0.115 SA
BRANCH   9  10
ATOM     10  C1  <0> d          -6.281   2.263   0.044  0.00  0.00    -0.029 C 
ATOM     11  H1  <0> d          -7.314   1.915   0.048  0.00  0.00     0.042 H 
ATOM     12  H2  <0> d          -6.096   2.861   0.936  0.00  0.00     0.042 H 
ATOM     13  H3  <0> d          -6.105   2.870  -0.843  0.00  0.00     0.042 H 
ENDBRANCH   9  10
ENDBRANCH   1   9
BRANCH   3  14
ATOM     14  N3  <0> d          -0.011   0.966   0.007  0.00  0.00    -0.384 N 
ATOM     15  H6  <0> d           0.002  -0.004   0.002  0.00  0.00     0.157 HD
ATOM     16  H7  <0> d           0.822   1.462   0.002  0.00  0.00     0.157 HD
ENDBRANCH   3  14
TORSDOF 3
