REMARK  7 active torsions:
REMARK  status: ('A' for Active; 'I' for Inactive)
REMARK    1  A    between atoms: C1_1  and  C2_2 
REMARK    2  A    between atoms: C2_2  and  C3_3 
REMARK    3  A    between atoms: C2_2  and  C4_4 
REMARK    4  A    between atoms: C4_4  and  C5_5 
REMARK    5  A    between atoms: C4_4  and  C8_8 
REMARK    6  A    between atoms: C5_5  and  C6_6 
REMARK    7  A    between atoms: C5_5  and  C7_7 
REMARK       I    between atoms: C8_8  and  N1_10 
ROOT
ATOM      1  C4  <0> d          -0.080   0.815   0.129  0.00  0.00     0.029 C 
ATOM      2  H8  <0> d          -0.388  -0.225   0.242  0.00  0.00     0.055 H 
ENDROOT
BRANCH   1   3
ATOM      3  C2  <0> d           1.429   0.926   0.356  0.00  0.00    -0.049 C 
ATOM      4  H4  <0> d           1.738   1.965   0.242  0.00  0.00     0.040 H 
BRANCH   3   5
ATOM      5  C1  <0> d           1.770   0.444   1.767  0.00  0.00    -0.072 C 
ATOM      6  H1  <0> d           1.462  -0.596   1.881  0.00  0.00     0.028 H 
ATOM      7  H2  <0> d           2.845   0.523   1.929  0.00  0.00     0.028 H 
ATOM      8  H3  <0> d           1.247   1.060   2.498  0.00  0.00     0.028 H 
ENDBRANCH   3   5
BRANCH   3   9
ATOM      9  C3  <0> d           2.164   0.060  -0.670  0.00  0.00    -0.072 C 
ATOM     10  H5  <0> d           2.008   0.469  -1.668  0.00  0.00     0.028 H 
ATOM     11  H6  <0> d           3.230   0.054  -0.443  0.00  0.00     0.028 H 
ATOM     12  H7  <0> d           1.778  -0.958  -0.629  0.00  0.00     0.028 H 
ENDBRANCH   3   9
ENDBRANCH   1   3
BRANCH   1  13
ATOM     13  C5  <0> d          -0.420   1.298  -1.282  0.00  0.00    -0.049 C 
ATOM     14  H9  <0> d           0.117   0.693  -2.013  0.00  0.00     0.040 H 
BRANCH  13  15
ATOM     15  C6  <0> d          -1.926   1.163  -1.517  0.00  0.00    -0.072 C 
ATOM     16  H10 <0> d          -2.462   1.812  -0.825  0.00  0.00     0.028 H 
ATOM     17  H11 <0> d          -2.161   1.451  -2.542  0.00  0.00     0.028 H 
ATOM     18  H12 <0> d          -2.228   0.129  -1.353  0.00  0.00     0.028 H 
ENDBRANCH  13  15
BRANCH  13  19
ATOM     19  C7  <0> d          -0.010   2.764  -1.432  0.00  0.00    -0.072 C 
ATOM     20  H13 <0> d           1.067   2.856  -1.293  0.00  0.00     0.028 H 
ATOM     21  H14 <0> d          -0.279   3.116  -2.428  0.00  0.00     0.028 H 
ATOM     22  H15 <0> d          -0.526   3.364  -0.683  0.00  0.00     0.028 H 
ENDBRANCH  13  19
ENDBRANCH   1  13
BRANCH   1  23
ATOM     23  C8  <0> d          -0.803   1.666   1.140  0.00  0.00     0.220 C 
ATOM     24  O1  <0> d          -0.290   2.683   1.555  0.00  0.00    -0.273 OA
ATOM     25  N1  <0> d          -2.022   1.297   1.583  0.00  0.00    -0.370 N 
ATOM     26  H16 <0> d          -2.406   0.454   1.298  0.00  0.00     0.159 HD
ATOM     27  H17 <0> d          -2.514   1.875   2.187  0.00  0.00     0.159 HD
ENDBRANCH   1  23
TORSDOF 7
