REMARK  4 active torsions:
REMARK  status: ('A' for Active; 'I' for Inactive)
REMARK    1  A    between atoms: C1_1  and  C2_2 
REMARK    2  A    between atoms: C2_2  and  C3_3 
REMARK    3  A    between atoms: C3_3  and  N1_4 
REMARK       I    between atoms: N1_4  and  C4_5 
REMARK    4  A    between atoms: C4_5  and  C5_7 
ROOT
ATOM      1  N1  <0> d           1.244   4.350   0.059  0.00  0.00    -0.359 N 
ATOM      2  C4  <0> d           1.718   3.262  -0.581  0.00  0.00     0.246 C 
ATOM      3  O1  <0> d           2.326   3.388  -1.623  0.00  0.00    -0.271 OA
ATOM      4  H9  <0> d           0.758   4.249   0.892  0.00  0.00     0.162 HD
ENDROOT
BRANCH   2   5
ATOM      5  C5  <0> d           1.492   1.889  -0.002  0.00  0.00     0.115 C 
ATOM      6  H1  <0> d           1.909   1.822   1.003  0.00  0.00     0.098 H 
ATOM      7  O2  <0> d           2.062   0.876  -0.858  0.00  0.00    -0.376 OA
ATOM      8  C8  <0> d           1.398  -0.360  -0.546  0.00  0.00     0.021 C 
ATOM      9  C7  <0> d           0.002  -0.004   0.002  0.00  0.00    -0.042 C 
ATOM     10  H14 <0> d           1.965  -0.904   0.209  0.00  0.00     0.074 H 
ATOM     11  H15 <0> d           1.299  -0.966  -1.446  0.00  0.00     0.074 H 
ATOM     12  C6  <0> d          -0.019   1.544   0.011  0.00  0.00    -0.031 C 
ATOM     13  H12 <0> d          -0.122  -0.393   1.013  0.00  0.00     0.036 H 
ATOM     14  H13 <0> d          -0.778  -0.393  -0.653  0.00  0.00     0.036 H 
ATOM     15  H10 <0> d          -0.514   1.931  -0.880  0.00  0.00     0.037 H 
ATOM     16  H11 <0> d          -0.497   1.921   0.915  0.00  0.00     0.037 H 
ENDBRANCH   2   5
BRANCH   1  17
ATOM     17  C3  <0> d           1.464   5.684  -0.504  0.00  0.00    -0.005 C 
ATOM     18  H7  <0> d           2.534   5.872  -0.587  0.00  0.00     0.064 H 
ATOM     19  H8  <0> d           1.008   5.741  -1.493  0.00  0.00     0.064 H 
BRANCH  17  20
ATOM     20  C2  <0> d           0.831   6.734   0.411  0.00  0.00    -0.054 C 
ATOM     21  H5  <0> d          -0.240   6.546   0.493  0.00  0.00     0.034 H 
ATOM     22  H6  <0> d           1.286   6.677   1.399  0.00  0.00     0.034 H 
BRANCH  20  23
ATOM     23  C1  <0> d           1.060   8.128  -0.177  0.00  0.00    -0.075 C 
ATOM     24  H2  <0> d           0.604   8.185  -1.166  0.00  0.00     0.027 H 
ATOM     25  H3  <0> d           0.609   8.876   0.474  0.00  0.00     0.027 H 
ATOM     26  H4  <0> d           2.130   8.316  -0.260  0.00  0.00     0.027 H 
ENDBRANCH  20  23
ENDBRANCH  17  20
ENDBRANCH   1  17
TORSDOF 4
