REMARK  2 active torsions:
REMARK  status: ('A' for Active; 'I' for Inactive)
REMARK    1  A    between atoms: C1_1  and  O1_2 
REMARK    2  A    between atoms: O1_2  and  C2_3 
ROOT
ATOM      1  C2  <0> d          -1.972   1.164   1.348  0.00  0.00     0.091 A 
ATOM      2  C3  <0> d          -2.606   0.363   0.403  0.00  0.00    -0.032 A 
ATOM      3  C4  <0> d          -3.918  -0.011   0.608  0.00  0.00     0.004 A 
ATOM      4  N1  <0> d          -4.583   0.387   1.677  0.00  0.00    -0.271 NA
ATOM      5  C5  <0> d          -4.034   1.150   2.599  0.00  0.00     0.025 A 
ATOM      6  C6  <0> d          -2.708   1.570   2.475  0.00  0.00     0.095 A 
ATOM      7  C7  <0> d          -2.110   2.400   3.477  0.00  0.00     0.103 C 
ATOM      8  N2  <0> d          -1.636   3.058   4.272  0.00  0.00    -0.191 NA
ATOM      9  H4  <0> d          -2.075   0.034  -0.479  0.00  0.00     0.090 H 
ATOM     10  H5  <0> d          -4.411  -0.635  -0.122  0.00  0.00     0.114 H 
ATOM     11  H6  <0> d          -4.613   1.453   3.458  0.00  0.00     0.117 H 
ENDROOT
BRANCH   1  12
ATOM     12  O1  <0> d          -0.682   1.547   1.184  0.00  0.00    -0.354 OA
BRANCH  12  13
ATOM     13  C1  <0> d          -0.013   1.086   0.008  0.00  0.00     0.010 C 
ATOM     14  H1  <0> d           0.002  -0.004   0.002  0.00  0.00     0.066 H 
ATOM     15  H2  <0> d           1.010   1.463   0.000  0.00  0.00     0.066 H 
ATOM     16  H3  <0> d          -0.540   1.447  -0.875  0.00  0.00     0.066 H 
ENDBRANCH  12  13
ENDBRANCH   1  12
TORSDOF 2
