REMARK  4 active torsions:
REMARK  status: ('A' for Active; 'I' for Inactive)
REMARK    1  A    between atoms: C1_1  and  C2_2 
REMARK    2  A    between atoms: C2_2  and  S1_3 
REMARK    3  A    between atoms: S1_3  and  C3_4 
REMARK    4  A    between atoms: C6_7  and  C9_10 
ROOT
ATOM      1  C3  <0> d           1.216  -0.681  -0.013  0.00  0.00     0.000 A 
ATOM      2  C4  <0> d           0.002  -0.004   0.002  0.00  0.00    -0.066 A 
ATOM      3  C5  <0> d          -0.017   1.377   0.010  0.00  0.00    -0.076 A 
ATOM      4  C6  <0> d           1.171   2.086   0.002  0.00  0.00    -0.062 A 
ATOM      5  C7  <0> d           2.380   1.416  -0.013  0.00  0.00    -0.076 A 
ATOM      6  C8  <0> d           2.407   0.035  -0.021  0.00  0.00    -0.066 A 
ATOM      7  H6  <0> d          -0.925  -0.557   0.007  0.00  0.00     0.085 H 
ATOM      8  H7  <0> d          -0.960   1.903   0.017  0.00  0.00     0.084 H 
ATOM      9  H8  <0> d           3.305   1.973  -0.019  0.00  0.00     0.084 H 
ATOM     10  H9  <0> d           3.352  -0.487  -0.032  0.00  0.00     0.085 H 
ENDROOT
BRANCH   1  11
ATOM     11  S1  <0> d           1.245  -2.442  -0.022  0.00  0.00    -0.130 SA
BRANCH  11  12
ATOM     12  C2  <0> d           3.012  -2.852  -0.042  0.00  0.00    -0.022 C 
ATOM     13  H4  <0> d           3.473  -2.429  -0.934  0.00  0.00     0.048 H 
ATOM     14  H5  <0> d           3.490  -2.438   0.846  0.00  0.00     0.048 H 
BRANCH  12  15
ATOM     15  C1  <0> d           3.182  -4.373  -0.051  0.00  0.00    -0.068 C 
ATOM     16  H1  <0> d           2.704  -4.787  -0.938  0.00  0.00     0.028 H 
ATOM     17  H2  <0> d           4.244  -4.619  -0.062  0.00  0.00     0.028 H 
ATOM     18  H3  <0> d           2.721  -4.796   0.842  0.00  0.00     0.028 H 
ENDBRANCH  12  15
ENDBRANCH  11  12
ENDBRANCH   1  11
BRANCH   4  19
ATOM     19  C9  <0> d           1.146   3.593   0.010  0.00  0.00    -0.051 C 
ATOM     20  H10 <0> d           1.150   3.951   1.040  0.00  0.00     0.033 H 
ATOM     21  H11 <0> d           2.025   3.973  -0.510  0.00  0.00     0.033 H 
ATOM     22  H12 <0> d           0.245   3.944  -0.493  0.00  0.00     0.033 H 
ENDBRANCH   4  19
TORSDOF 4
