REMARK  2 active torsions:
REMARK  status: ('A' for Active; 'I' for Inactive)
REMARK    1  A    between atoms: C1_1  and  C2_2 
REMARK    2  A    between atoms: C5_6  and  C6_8 
ROOT
ATOM      1  C2  <0> d          -1.193   3.507   0.032  0.00  0.00     0.035 A 
ATOM      2  C3  <0> d          -1.230   2.122   0.019  0.00  0.00    -0.021 A 
ATOM      3  C4  <0> d          -0.017   1.428   0.010  0.00  0.00     0.140 A 
ATOM      4  N1  <0> d           1.121   2.121   0.003  0.00  0.00    -0.223 NA
ATOM      5  C5  <0> d           1.106   3.436   0.010  0.00  0.00     0.123 A 
ATOM      6  N2  <0> d          -0.021   4.121   0.025  0.00  0.00    -0.239 NA
ATOM      7  C7  <0> d           0.002  -0.004   0.002  0.00  0.00     0.119 C 
ATOM      8  N3  <0> d           0.018  -1.140  -0.004  0.00  0.00    -0.190 NA
ATOM      9  H4  <0> d          -2.171   1.593   0.021  0.00  0.00     0.091 H 
ENDROOT
BRANCH   1  10
ATOM     10  C1  <0> d          -2.472   4.305   0.049  0.00  0.00    -0.035 C 
ATOM     11  H1  <0> d          -3.332   3.619   0.053  0.00  0.00     0.035 H 
ATOM     12  H2  <0> d          -2.517   4.943  -0.845  0.00  0.00     0.035 H 
ATOM     13  H3  <0> d          -2.500   4.934   0.951  0.00  0.00     0.035 H 
ENDBRANCH   1  10
BRANCH   5  14
ATOM     14  C6  <0> d           2.415   4.183   0.002  0.00  0.00    -0.019 C 
ATOM     15  H5  <0> d           2.220   5.265   0.010  0.00  0.00     0.037 H 
ATOM     16  H6  <0> d           2.982   3.918  -0.903  0.00  0.00     0.037 H 
ATOM     17  H7  <0> d           2.999   3.909   0.893  0.00  0.00     0.037 H 
ENDBRANCH   5  14
TORSDOF 2
