REMARK  2 active torsions:
REMARK  status: ('A' for Active; 'I' for Inactive)
REMARK    1  A    between atoms: C1_1  and  C2_2 
REMARK    2  A    between atoms: C4_5  and  C7_10 
ROOT
ATOM      1  C2  <0> d           2.901   3.407  -0.008  0.00  0.00     0.049 A 
ATOM      2  C3  <0> d           1.558   3.383   0.005  0.00  0.00     0.011 A 
ATOM      3  N1  <0> d           1.158   2.050   0.002  0.00  0.00    -0.303 N 
ATOM      4  C4  <0> d          -0.016   1.328   0.009  0.00  0.00     0.021 A 
ATOM      5  C5  <0> d           0.002  -0.004   0.002  0.00  0.00    -0.020 A 
ATOM      6  S1  <0> d           1.754  -0.349  -0.017  0.00  0.00    -0.061 SA
ATOM      7  C6  <0> d           2.326   1.334  -0.013  0.00  0.00     0.177 A 
ATOM      8  N2  <0> d           3.347   2.142  -0.019  0.00  0.00    -0.228 NA
ATOM      9  H4  <0> d           0.905   4.244   0.016  0.00  0.00     0.115 H 
ATOM     10  H5  <0> d          -0.827  -0.696   0.006  0.00  0.00     0.098 H 
ENDROOT
BRANCH   1  11
ATOM     11  C1  <0> d           3.760   4.645  -0.010  0.00  0.00    -0.034 C 
ATOM     12  H1  <0> d           3.958   4.949  -1.038  0.00  0.00     0.035 H 
ATOM     13  H2  <0> d           3.241   5.449   0.513  0.00  0.00     0.035 H 
ATOM     14  H3  <0> d           4.703   4.433   0.494  0.00  0.00     0.035 H 
ENDBRANCH   1  11
BRANCH   4  15
ATOM     15  C7  <0> d          -1.336   2.054   0.019  0.00  0.00    -0.036 C 
ATOM     16  H6  <0> d          -1.650   2.224   1.050  0.00  0.00     0.035 H 
ATOM     17  H7  <0> d          -1.228   3.012  -0.490  0.00  0.00     0.035 H 
ATOM     18  H8  <0> d          -2.086   1.452  -0.494  0.00  0.00     0.035 H 
ENDBRANCH   4  15
TORSDOF 2
