REMARK  1 active torsions:
REMARK  status: ('A' for Active; 'I' for Inactive)
REMARK    1  A    between atoms: C1_1  and  N1_2 
ROOT
ATOM      1  N1  <0> d           0.002  -0.004   0.002  0.00  0.00    -0.344 N 
ATOM      2  C2  <0> d           0.009  -0.813  -1.117  0.00  0.00    -0.002 A 
ATOM      3  C3  <0> d           0.027  -2.080  -0.713  0.00  0.00     0.021 A 
ATOM      4  N2  <0> d           0.033  -2.099   0.672  0.00  0.00    -0.226 N 
ATOM      5  C4  <0> d           0.024  -0.819   1.103  0.00  0.00     0.152 A 
ATOM      6  C5  <0> d           0.037  -0.853   2.500  0.00  0.00     0.109 A 
ATOM      7  C6  <0> d           0.059  -2.212   2.877  0.00  0.00     0.046 A 
ATOM      8  N3  <0> d           0.050  -2.939   1.792  0.00  0.00    -0.177 NA
ATOM      9  C7  <0> d           0.031   0.276   3.381  0.00  0.00     0.105 C 
ATOM     10  N4  <0> d           0.026   1.172   4.080  0.00  0.00    -0.191 NA
ATOM     11  H4  <0> d          -0.000  -0.475  -2.143  0.00  0.00     0.113 H 
ATOM     12  H5  <0> d           0.036  -2.948  -1.356  0.00  0.00     0.117 H 
ATOM     13  H6  <0> d           0.074  -2.588   3.890  0.00  0.00     0.120 H 
ENDROOT
BRANCH   1  14
ATOM     14  C1  <0> d          -0.018   1.461   0.010  0.00  0.00    -0.013 C 
ATOM     15  H1  <0> d           1.005   1.838   0.002  0.00  0.00     0.057 H 
ATOM     16  H2  <0> d          -0.545   1.822  -0.873  0.00  0.00     0.057 H 
ATOM     17  H3  <0> d          -0.528   1.812   0.907  0.00  0.00     0.057 H 
ENDBRANCH   1  14
TORSDOF 1
