REMARK  3 active torsions:
REMARK  status: ('A' for Active; 'I' for Inactive)
REMARK    1  A    between atoms: C1_1  and  C2_2 
REMARK    2  A    between atoms: C2_2  and  C3_4 
REMARK    3  A    between atoms: C2_2  and  N1_7 
REMARK       I    between atoms: N1_7  and  C6_8 
REMARK       I    between atoms: C6_8  and  N2_10 
ROOT
ATOM      1  C2  <0> d          -2.449   1.120   0.020  0.00  0.00     0.014 C 
ATOM      2  H1  <0> d          -2.333   0.214  -0.575  0.00  0.00     0.072 H 
ENDROOT
BRANCH   1   3
ATOM      3  C1  <0> d          -2.816   0.743   1.456  0.00  0.00    -0.057 C 
ATOM      4  H2  <0> d          -2.932   1.649   2.051  0.00  0.00     0.030 H 
ATOM      5  H3  <0> d          -3.753   0.185   1.458  0.00  0.00     0.030 H 
ATOM      6  H4  <0> d          -2.026   0.127   1.884  0.00  0.00     0.030 H 
ENDBRANCH   1   3
BRANCH   1   7
ATOM      7  C3  <0> d          -3.559   1.986  -0.580  0.00  0.00    -0.035 A 
ATOM      8  C5  <0> d          -3.378   2.468  -2.021  0.00  0.00    -0.059 A 
ATOM      9  C4  <0> d          -4.402   1.376  -1.702  0.00  0.00    -0.059 A 
ATOM     10  H8  <0> d          -3.760   3.458  -2.271  0.00  0.00     0.033 H 
ATOM     11  H9  <0> d          -2.469   2.169  -2.541  0.00  0.00     0.033 H 
ATOM     12  H6  <0> d          -4.165   0.359  -2.014  0.00  0.00     0.033 H 
ATOM     13  H7  <0> d          -5.457   1.647  -1.744  0.00  0.00     0.033 H 
ATOM     14  H5  <0> d          -4.060   2.658   0.117  0.00  0.00     0.043 H 
ENDBRANCH   1   7
BRANCH   1  15
ATOM     15  N1  <0> d          -1.191   1.870   0.018  0.00  0.00    -0.339 N 
ATOM     16  C6  <0> d          -0.014   1.212   0.009  0.00  0.00     0.314 C 
ATOM     17  O1  <0> d           0.002  -0.004   0.002  0.00  0.00    -0.248 OA
ATOM     18  N2  <0> d           1.143   1.901   0.001  0.00  0.00    -0.352 N 
ATOM     19  H11 <0> d           1.990   1.428  -0.009  0.00  0.00     0.160 HD
ATOM     20  H12 <0> d           1.130   2.871   0.007  0.00  0.00     0.160 HD
ATOM     21  H10 <0> d          -1.204   2.840   0.023  0.00  0.00     0.164 HD
ENDBRANCH   1  15
TORSDOF 3
