REMARK  6 active torsions:
REMARK  status: ('A' for Active; 'I' for Inactive)
REMARK    1  A    between atoms: C1_1  and  C2_2 
REMARK    2  A    between atoms: C2_2  and  C3_3 
REMARK    3  A    between atoms: C3_3  and  C4_4 
REMARK    4  A    between atoms: C4_4  and  C5_6 
REMARK    5  A    between atoms: C4_4  and  O1_9 
REMARK    6  A    between atoms: C5_6  and  C6_7 
ROOT
ATOM      1  C6  <0> d          -0.725   1.573  -1.185  0.00  0.00    -0.115 C 
ATOM      2  C7  <0> d          -1.292   1.962  -2.136  0.00  0.00    -0.154 C 
ATOM      3  H11 <0> d          -1.825   2.327  -3.027  0.00  0.00     0.166 H 
ENDROOT
BRANCH   1   4
ATOM      4  C5  <0> d          -0.013   1.086   0.008  0.00  0.00     0.014 C 
ATOM      5  H9  <0> d           1.019   1.466   0.000  0.00  0.00     0.055 H 
ATOM      6  H10 <0> d           0.002  -0.014   0.002  0.00  0.00     0.055 H 
BRANCH   4   7
ATOM      7  C4  <0> d          -0.729   1.579   1.267  0.00  0.00     0.045 C 
ATOM      8  H1  <0> d          -0.892   2.666   1.232  0.00  0.00     0.084 H 
BRANCH   7   9
ATOM      9  C3  <0> d           0.079   1.179   2.503  0.00  0.00    -0.041 C 
ATOM     10  H7  <0> d           1.107   1.556   2.407  0.00  0.00     0.036 H 
ATOM     11  H8  <0> d           0.097   0.082   2.590  0.00  0.00     0.036 H 
BRANCH   9  12
ATOM     12  C2  <0> d          -0.570   1.778   3.752  0.00  0.00    -0.066 C 
ATOM     13  H5  <0> d          -1.599   1.400   3.848  0.00  0.00     0.032 H 
ATOM     14  H6  <0> d          -0.589   2.874   3.666  0.00  0.00     0.032 H 
BRANCH  12  15
ATOM     15  C1  <0> d           0.237   1.377   4.989  0.00  0.00    -0.076 C 
ATOM     16  H2  <0> d          -0.230   1.808   5.887  0.00  0.00     0.027 H 
ATOM     17  H3  <0> d           1.266   1.755   4.893  0.00  0.00     0.027 H 
ATOM     18  H4  <0> d           0.255   0.281   5.075  0.00  0.00     0.027 H 
ENDBRANCH  12  15
ENDBRANCH   9  12
ENDBRANCH   7   9
BRANCH   7  19
ATOM     19  O1  <0> d          -2.030   0.991   1.336  0.00  0.00    -0.395 OA
ATOM     20  H12 <0> d          -2.757   1.168   0.530  0.00  0.00     0.210 HD
ENDBRANCH   7  19
ENDBRANCH   4   7
ENDBRANCH   1   4
TORSDOF 6
