REMARK  1 active torsions:
REMARK  status: ('A' for Active; 'I' for Inactive)
REMARK    1  A    between atoms: C3_4  and  N3_7 
ROOT
ATOM      1  C1  <0> d          -0.017   1.382   0.010  0.00  0.00    -0.048 A 
ATOM      2  C2  <0> d           1.192   2.061   0.002  0.00  0.00     0.022 A 
ATOM      3  N1  <0> d           2.320   1.371  -0.013  0.00  0.00    -0.076 NA
ATOM      4  C3  <0> d           2.303   0.046  -0.020  0.00  0.00     0.719 A 
ATOM      5  N2  <0> d           1.165  -0.633  -0.013  0.00  0.00    -0.076 NA
ATOM      6  C4  <0> d           0.002  -0.004   0.002  0.00  0.00     0.022 A 
ATOM      7  H1  <0> d          -0.953   1.921   0.017  0.00  0.00     0.087 H 
ATOM      8  H2  <0> d           1.212   3.141   0.007  0.00  0.00     0.115 H 
ATOM      9  H3  <0> d          -0.922  -0.563   0.007  0.00  0.00     0.115 H 
ENDROOT
BRANCH   4  10
ATOM     10  N3  <0> d           3.502  -0.645  -0.035  0.00  0.00    -0.231 N 
ATOM     11  H4  <0> d           3.503  -1.615  -0.040  0.00  0.00     0.174 HD
ATOM     12  H5  <0> d           4.342  -0.159  -0.040  0.00  0.00     0.174 HD
ENDBRANCH   4  10
TORSDOF 1
