REMARK  4 active torsions:
REMARK  status: ('A' for Active; 'I' for Inactive)
REMARK    1  A    between atoms: C1_1  and  C2_2 
REMARK    2  A    between atoms: C2_2  and  C3_3 
REMARK    3  A    between atoms: C2_2  and  C4_4 
REMARK    4  A    between atoms: C4_4  and  N1_5 
REMARK       I    between atoms: N1_5  and  C5_6 
REMARK       I    between atoms: C5_6  and  N2_8 
ROOT
ATOM      1  C2  <0> d           1.021  -2.227  -0.020  0.00  0.00    -0.046 C 
ATOM      2  H4  <0> d           0.387  -2.490   0.827  0.00  0.00     0.041 H 
ENDROOT
BRANCH   1   3
ATOM      3  C1  <0> d           0.322  -2.619  -1.323  0.00  0.00    -0.072 C 
ATOM      4  H1  <0> d           0.137  -3.694  -1.327  0.00  0.00     0.028 H 
ATOM      5  H2  <0> d          -0.626  -2.088  -1.400  0.00  0.00     0.028 H 
ATOM      6  H3  <0> d           0.956  -2.357  -2.169  0.00  0.00     0.028 H 
ENDBRANCH   1   3
BRANCH   1   7
ATOM      7  C3  <0> d           2.352  -2.974   0.089  0.00  0.00    -0.072 C 
ATOM      8  H5  <0> d           2.851  -2.694   1.018  0.00  0.00     0.028 H 
ATOM      9  H6  <0> d           2.168  -4.048   0.085  0.00  0.00     0.028 H 
ATOM     10  H7  <0> d           2.987  -2.711  -0.757  0.00  0.00     0.028 H 
ENDBRANCH   1   7
BRANCH   1  11
ATOM     11  C4  <0> d           1.281  -0.719  -0.014  0.00  0.00    -0.001 C 
ATOM     12  H8  <0> d           1.840  -0.443  -0.908  0.00  0.00     0.064 H 
ATOM     13  H9  <0> d           1.857  -0.453   0.872  0.00  0.00     0.064 H 
BRANCH  11  14
ATOM     14  N1  <0> d           0.002  -0.004   0.002  0.00  0.00    -0.343 N 
ATOM     15  C5  <0> d          -0.016   1.344   0.009  0.00  0.00     0.313 C 
ATOM     16  O1  <0> d           1.028   1.966   0.003  0.00  0.00    -0.248 OA
ATOM     17  N2  <0> d          -1.192   2.002   0.019  0.00  0.00    -0.352 N 
ATOM     18  H11 <0> d          -2.026   1.505   0.020  0.00  0.00     0.160 HD
ATOM     19  H12 <0> d          -1.206   2.971   0.024  0.00  0.00     0.160 HD
ATOM     20  H10 <0> d          -0.831  -0.500   0.007  0.00  0.00     0.164 HD
ENDBRANCH  11  14
ENDBRANCH   1  11
TORSDOF 4
