REMARK  4 active torsions:
REMARK  status: ('A' for Active; 'I' for Inactive)
REMARK    1  A    between atoms: C1_1  and  C2_2 
REMARK    2  A    between atoms: C2_2  and  O2_12 
REMARK    3  A    between atoms: C5_7  and  C6_8 
REMARK    4  A    between atoms: C5_7  and  C7_9 
ROOT
ATOM      1  C2  <0> d           0.002  -0.004   0.002  0.00  0.00     0.102 C 
ATOM      2  C3  <0> d           0.835  -0.528  -1.193  0.00  0.00     0.083 C 
ATOM      3  H1  <0> d           0.930   0.235  -1.965  0.00  0.00     0.070 H 
ATOM      4  C4  <0> d           2.205  -0.819  -0.531  0.00  0.00     0.038 C 
ATOM      5  O1  <0> d           1.849  -1.329   0.772  0.00  0.00    -0.376 OA
ATOM      6  C5  <0> d           0.743  -0.540   1.242  0.00  0.00     0.085 C 
ATOM      7  C8  <0> d           0.245  -1.759  -1.745  0.00  0.00     0.069 C 
ATOM      8  N1  <0> d          -0.210  -2.708  -2.171  0.00  0.00    -0.197 NA
ATOM      9  H5  <0> d           2.755  -1.570  -1.100  0.00  0.00     0.076 H 
ATOM     10  H6  <0> d           2.789   0.096  -0.439  0.00  0.00     0.076 H 
ENDROOT
BRANCH   1  11
ATOM     11  C1  <0> d          -0.019   1.526   0.010  0.00  0.00    -0.044 C 
ATOM     12  H2  <0> d           1.004   1.903   0.003  0.00  0.00     0.031 H 
ATOM     13  H3  <0> d          -0.546   1.887  -0.873  0.00  0.00     0.031 H 
ATOM     14  H4  <0> d          -0.529   1.877   0.907  0.00  0.00     0.031 H 
ENDBRANCH   1  11
BRANCH   1  15
ATOM     15  O2  <0> d          -1.329  -0.521  -0.048  0.00  0.00    -0.386 OA
ATOM     16  H13 <0> d          -1.832  -0.238  -0.823  0.00  0.00     0.210 HD
ENDBRANCH   1  15
BRANCH   6  17
ATOM     17  C6  <0> d           1.258   0.628   2.086  0.00  0.00    -0.045 C 
ATOM     18  H7  <0> d           0.418   1.243   2.407  0.00  0.00     0.031 H 
ATOM     19  H8  <0> d           1.781   0.241   2.961  0.00  0.00     0.031 H 
ATOM     20  H9  <0> d           1.944   1.231   1.490  0.00  0.00     0.031 H 
ENDBRANCH   6  17
BRANCH   6  21
ATOM     21  C7  <0> d          -0.200  -1.411   2.075  0.00  0.00    -0.045 C 
ATOM     22  H10 <0> d          -0.546  -2.251   1.473  0.00  0.00     0.031 H 
ATOM     23  H11 <0> d           0.331  -1.787   2.950  0.00  0.00     0.031 H 
ATOM     24  H12 <0> d          -1.055  -0.817   2.396  0.00  0.00     0.031 H 
ENDBRANCH   6  21
TORSDOF 4
