REMARK  2 active torsions:
REMARK  status: ('A' for Active; 'I' for Inactive)
REMARK    1  A    between atoms: C1_1  and  C2_2 
REMARK    2  A    between atoms: C2_2  and  C3_3 
ROOT
ATOM      1  C3  <0> d          -2.143   1.058   1.278  0.00  0.00     0.146 A 
ATOM      2  N1  <0> d          -2.514  -0.071   1.803  0.00  0.00    -0.226 NA
ATOM      3  C4  <0> d          -3.856  -0.215   1.631  0.00  0.00     0.093 A 
ATOM      4  C5  <0> d          -4.775  -1.204   1.984  0.00  0.00    -0.052 A 
ATOM      5  C6  <0> d          -6.102  -1.054   1.651  0.00  0.00    -0.081 A 
ATOM      6  C7  <0> d          -6.531   0.075   0.968  0.00  0.00    -0.080 A 
ATOM      7  C8  <0> d          -5.634   1.061   0.613  0.00  0.00    -0.048 A 
ATOM      8  C9  <0> d          -4.294   0.925   0.940  0.00  0.00     0.106 A 
ATOM      9  O1  <0> d          -3.198   1.690   0.740  0.00  0.00    -0.294 OA
ATOM     10  H6  <0> d          -4.446  -2.085   2.516  0.00  0.00     0.087 H 
ATOM     11  H7  <0> d          -6.814  -1.819   1.923  0.00  0.00     0.083 H 
ATOM     12  H8  <0> d          -7.575   0.183   0.713  0.00  0.00     0.083 H 
ATOM     13  H9  <0> d          -5.976   1.937   0.081  0.00  0.00     0.087 H 
ENDROOT
BRANCH   1  14
ATOM     14  C2  <0> d          -0.729   1.579   1.267  0.00  0.00    -0.007 C 
ATOM     15  H4  <0> d          -0.202   1.218   2.150  0.00  0.00     0.044 H 
ATOM     16  H5  <0> d          -0.744   2.669   1.273  0.00  0.00     0.044 H 
BRANCH  14  17
ATOM     17  C1  <0> d          -0.013   1.086   0.008  0.00  0.00    -0.069 C 
ATOM     18  H1  <0> d           0.002  -0.004   0.002  0.00  0.00     0.028 H 
ATOM     19  H2  <0> d           1.010   1.463   0.000  0.00  0.00     0.028 H 
ATOM     20  H3  <0> d          -0.540   1.447  -0.875  0.00  0.00     0.028 H 
ENDBRANCH  14  17
ENDBRANCH   1  14
TORSDOF 2
