REMARK  1 active torsions:
REMARK  status: ('A' for Active; 'I' for Inactive)
REMARK    1  A    between atoms: C5_7  and  O2_9 
ROOT
ATOM      1  C1  <0> d          -0.047   3.748   0.362  0.00  0.00    -0.032 C 
ATOM      2  C2  <0> d          -1.364   3.067  -0.017  0.00  0.00     0.011 C 
ATOM      3  C3  <0> d          -1.198   1.575   0.017  0.00  0.00     0.217 C 
ATOM      4  O1  <0> d          -2.195   0.887   0.059  0.00  0.00    -0.274 OA
ATOM      5  N1  <0> d          -0.011   0.966   0.007  0.00  0.00    -0.359 N 
ATOM      6  C4  <0> d           1.267   1.666  -0.001  0.00  0.00     0.019 C 
ATOM      7  C5  <0> d           1.081   3.113  -0.460  0.00  0.00     0.051 C 
ATOM      8  H1  <0> d           0.818   3.131  -1.517  0.00  0.00     0.085 H 
ATOM      9  H2  <0> d           0.148   3.604   1.425  0.00  0.00     0.037 H 
ATOM     10  H3  <0> d          -0.107   4.814   0.141  0.00  0.00     0.037 H 
ATOM     11  H4  <0> d          -2.141   3.363   0.688  0.00  0.00     0.047 H 
ATOM     12  H5  <0> d          -1.653   3.371  -1.023  0.00  0.00     0.047 H 
ATOM     13  H6  <0> d           0.002  -0.004   0.002  0.00  0.00     0.162 HD
ATOM     14  H7  <0> d           1.689   1.658   1.004  0.00  0.00     0.068 H 
ATOM     15  H8  <0> d           1.952   1.158  -0.680  0.00  0.00     0.068 H 
ENDROOT
BRANCH   7  16
ATOM     16  O2  <0> d           2.293   3.841  -0.253  0.00  0.00    -0.394 OA
ATOM     17  H9  <0> d           3.053   3.486  -0.734  0.00  0.00     0.210 HD
ENDBRANCH   7  16
TORSDOF 1
