REMARK  4 active torsions:
REMARK  status: ('A' for Active; 'I' for Inactive)
REMARK    1  A    between atoms: C1_1  and  C2_2 
REMARK    2  A    between atoms: C2_2  and  O2_4 
REMARK    3  A    between atoms: O2_4  and  C3_5 
REMARK    4  A    between atoms: C3_5  and  C4_6 
ROOT
ATOM      1  C4  <0> d          -0.132   3.793   0.024  0.00  0.00     0.058 A 
ATOM      2  C5  <0> d           1.107   3.179   0.009  0.00  0.00    -0.057 A 
ATOM      3  C6  <0> d           1.174   1.794   0.001  0.00  0.00    -0.080 A 
ATOM      4  C7  <0> d          -0.013   1.076   0.008  0.00  0.00    -0.066 A 
ATOM      5  C8  <0> d          -1.214   1.759   0.017  0.00  0.00     0.003 A 
ATOM      6  N1  <0> d          -1.239   3.078   0.030  0.00  0.00    -0.263 NA
ATOM      7  H6  <0> d           2.010   3.770   0.004  0.00  0.00     0.086 H 
ATOM      8  H7  <0> d           2.127   1.287  -0.011  0.00  0.00     0.083 H 
ATOM      9  H8  <0> d           0.002  -0.004   0.002  0.00  0.00     0.085 H 
ATOM     10  H9  <0> d          -2.142   1.207   0.018  0.00  0.00     0.114 H 
ENDROOT
BRANCH   1  11
ATOM     11  C3  <0> d          -0.217   5.298   0.032  0.00  0.00     0.068 C 
ATOM     12  H4  <0> d          -0.759   5.636  -0.851  0.00  0.00     0.085 H 
ATOM     13  H5  <0> d          -0.742   5.627   0.929  0.00  0.00     0.085 H 
BRANCH  11  14
ATOM     14  O2  <0> d           1.123   5.858   0.022  0.00  0.00    -0.316 OA
BRANCH  14  15
ATOM     15  C2  <0> d           1.223   7.197   0.028  0.00  0.00     0.255 C 
ATOM     16  O1  <0> d           0.225   7.877   0.041  0.00  0.00    -0.266 OA
BRANCH  15  17
ATOM     17  C1  <0> d           2.581   7.850   0.018  0.00  0.00     0.004 C 
ATOM     18  H1  <0> d           3.354   7.082   0.006  0.00  0.00     0.041 H 
ATOM     19  H2  <0> d           2.677   8.475  -0.870  0.00  0.00     0.041 H 
ATOM     20  H3  <0> d           2.694   8.466   0.910  0.00  0.00     0.041 H 
ENDBRANCH  15  17
ENDBRANCH  14  15
ENDBRANCH  11  14
ENDBRANCH   1  11
TORSDOF 4
