REMARK  1 active torsions:
REMARK  status: ('A' for Active; 'I' for Inactive)
REMARK    1  A    between atoms: C6_6  and  N1_7 
ROOT
ATOM      1  C1  <0> d           1.176   1.778   0.000  0.00  0.00    -0.057 A 
ATOM      2  C2  <0> d          -0.013   1.076   0.008  0.00  0.00    -0.073 A 
ATOM      3  C3  <0> d          -1.224   1.748   0.017  0.00  0.00    -0.032 A 
ATOM      4  C4  <0> d          -1.240   3.135   0.034  0.00  0.00     0.036 A 
ATOM      5  C5  <0> d          -0.046   3.845   0.025  0.00  0.00    -0.032 A 
ATOM      6  C6  <0> d           1.164   3.167   0.008  0.00  0.00     0.027 A 
ATOM      7  N2  <0> d          -2.450   3.838   0.057  0.00  0.00    -0.389 N 
ATOM      8  C7  <0> d          -3.696   3.117  -0.232  0.00  0.00    -0.007 C 
ATOM      9  C8  <0> d          -3.662   1.792   0.542  0.00  0.00    -0.047 C 
ATOM     10  C9  <0> d          -2.500   0.947   0.023  0.00  0.00    -0.037 C 
ATOM     11  H1  <0> d           2.116   1.247  -0.012  0.00  0.00     0.086 H 
ATOM     12  H2  <0> d           0.002  -0.004   0.002  0.00  0.00     0.084 H 
ATOM     13  H3  <0> d          -0.060   4.925   0.032  0.00  0.00     0.090 H 
ATOM     14  H6  <0> d          -2.477   4.913   0.286  0.00  0.00     0.159 HD
ATOM     15  H7  <0> d          -4.555   3.725   0.089  0.00  0.00     0.064 H 
ATOM     16  H8  <0> d          -3.767   2.925  -1.313  0.00  0.00     0.064 H 
ATOM     17  H9  <0> d          -3.524   1.998   1.614  0.00  0.00     0.035 H 
ATOM     18  H10 <0> d          -4.610   1.255   0.391  0.00  0.00     0.035 H 
ATOM     19  H11 <0> d          -2.729   0.615  -1.000  0.00  0.00     0.040 H 
ATOM     20  H12 <0> d          -2.378   0.069   0.675  0.00  0.00     0.040 H 
ENDROOT
BRANCH   6  21
ATOM     21  N1  <0> d           2.366   3.879  -0.002  0.00  0.00    -0.399 N 
ATOM     22  H4  <0> d           2.354   4.979   0.004  0.00  0.00     0.156 HD
ATOM     23  H5  <0> d           3.324   3.339  -0.017  0.00  0.00     0.156 HD
ENDBRANCH   6  21
TORSDOF 1
