REMARK  0 active torsions:
REMARK  status: ('A' for Active; 'I' for Inactive)
ROOT
ATOM      1  C1  <0> d          -0.013   1.076   0.008  0.00  0.00     0.011 A 
ATOM      2  C2  <0> d           1.143   1.786   0.001  0.00  0.00    -0.025 A 
ATOM      3  S1  <0> d           0.504   3.455   0.016  0.00  0.00    -0.069 SA
ATOM      4  C3  <0> d          -1.185   3.049   0.030  0.00  0.00     0.167 A 
ATOM      5  N1  <0> d          -1.153   1.735   0.017  0.00  0.00    -0.241 NA
ATOM      6 Cl1  <0> d          -2.561   4.107   0.050  0.00  0.00    -0.054 Cl
ATOM      7  H1  <0> d           0.002  -0.004   0.002  0.00  0.00     0.115 H 
ATOM      8  H2  <0> d           2.166   1.440  -0.011  0.00  0.00     0.097 H 
ENDROOT
TORSDOF 0
