REMARK  2 active torsions:
REMARK  status: ('A' for Active; 'I' for Inactive)
REMARK    1  A    between atoms: C1_1  and  C2_2 
REMARK    2  A    between atoms: C2_2  and  C3_3 
ROOT
ATOM      1  C1  <0> d           0.007   1.381   2.508  0.00  0.00     0.022 C 
ATOM      2  C4  <0> d          -0.682   1.856   3.719  0.00  0.00     0.059 C 
ATOM      3  N1  <0> d          -1.214   2.222   4.654  0.00  0.00    -0.197 NA
ATOM      4  H1  <0> d           0.022   0.291   2.502  0.00  0.00     0.055 H 
ATOM      5  H2  <0> d           1.030   1.759   2.500  0.00  0.00     0.055 H 
ENDROOT
BRANCH   1   6
ATOM      6  C2  <0> d          -0.733   1.888   1.268  0.00  0.00     0.037 C 
ATOM      7  H3  <0> d          -0.748   2.978   1.274  0.00  0.00     0.047 H 
ATOM      8  H4  <0> d          -1.756   1.511   1.276  0.00  0.00     0.047 H 
BRANCH   6   9
ATOM      9  C3  <0> d          -0.017   1.395   0.010  0.00  0.00     0.388 C 
ATOM     10  F1  <0> d           0.002  -0.004   0.002  0.00  0.00    -0.171 F 
ATOM     11  F2  <0> d           1.296   1.879  -0.000  0.00  0.00    -0.171 F 
ATOM     12  F3  <0> d          -0.694   1.858  -1.124  0.00  0.00    -0.171 F 
ENDBRANCH   6   9
ENDBRANCH   1   6
TORSDOF 2
