REMARK  6 active torsions:
REMARK  status: ('A' for Active; 'I' for Inactive)
REMARK    1  A    between atoms: C1_1  and  C2_2 
REMARK    2  A    between atoms: C2_2  and  C3_3 
REMARK    3  A    between atoms: C3_3  and  C4_4 
REMARK    4  A    between atoms: C4_4  and  N1_5 
REMARK       I    between atoms: N1_5  and  C5_6 
REMARK       I    between atoms: C5_6  and  N2_8 
REMARK    5  A    between atoms: N2_8  and  C6_9 
REMARK    6  A    between atoms: N2_8  and  C7_10 
ROOT
ATOM      1  C4  <0> d           2.422   1.186  -0.015  0.00  0.00    -0.003 C 
ATOM      2  H8  <0> d           2.497   0.556   0.871  0.00  0.00     0.064 H 
ATOM      3  H9  <0> d           2.480   0.565  -0.909  0.00  0.00     0.064 H 
ENDROOT
BRANCH   1   4
ATOM      4  C3  <0> d           3.571   2.196  -0.020  0.00  0.00    -0.051 C 
ATOM      5  H6  <0> d           3.497   2.827  -0.906  0.00  0.00     0.035 H 
ATOM      6  H7  <0> d           3.514   2.817   0.874  0.00  0.00     0.035 H 
BRANCH   4   7
ATOM      7  C2  <0> d           4.907   1.449  -0.037  0.00  0.00    -0.067 C 
ATOM      8  H4  <0> d           4.981   0.819   0.849  0.00  0.00     0.032 H 
ATOM      9  H5  <0> d           4.964   0.828  -0.931  0.00  0.00     0.032 H 
BRANCH   7  10
ATOM     10  C1  <0> d           6.056   2.459  -0.043  0.00  0.00    -0.076 C 
ATOM     11  H1  <0> d           5.981   3.090  -0.928  0.00  0.00     0.027 H 
ATOM     12  H2  <0> d           5.998   3.080   0.851  0.00  0.00     0.027 H 
ATOM     13  H3  <0> d           7.007   1.927  -0.054  0.00  0.00     0.027 H 
ENDBRANCH   7  10
ENDBRANCH   4   7
ENDBRANCH   1   4
BRANCH   1  14
ATOM     14  N1  <0> d           1.143   1.901   0.001  0.00  0.00    -0.343 N 
ATOM     15  C5  <0> d          -0.014   1.212   0.009  0.00  0.00     0.317 C 
ATOM     16  O1  <0> d           0.002  -0.004   0.002  0.00  0.00    -0.247 OA
ATOM     17  N2  <0> d          -1.191   1.870   0.018  0.00  0.00    -0.343 N 
ATOM     18  H10 <0> d           1.130   2.871   0.007  0.00  0.00     0.164 HD
BRANCH  17  19
ATOM     19  C6  <0> d          -2.449   1.120   0.020  0.00  0.00    -0.015 C 
ATOM     20  H11 <0> d          -2.757   0.928   1.048  0.00  0.00     0.056 H 
ATOM     21  H12 <0> d          -3.219   1.701  -0.487  0.00  0.00     0.056 H 
ATOM     22  H13 <0> d          -2.308   0.172  -0.500  0.00  0.00     0.056 H 
ENDBRANCH  17  19
BRANCH  17  23
ATOM     23  C7  <0> d          -1.210   3.334   0.026  0.00  0.00    -0.015 C 
ATOM     24  H14 <0> d          -1.220   3.703  -1.000  0.00  0.00     0.056 H 
ATOM     25  H15 <0> d          -2.103   3.683   0.546  0.00  0.00     0.056 H 
ATOM     26  H16 <0> d          -0.323   3.707   0.538  0.00  0.00     0.056 H 
ENDBRANCH  17  23
ENDBRANCH   1  14
TORSDOF 6
