REMARK  3 active torsions:
REMARK  status: ('A' for Active; 'I' for Inactive)
REMARK    1  A    between atoms: C2_2  and  C3_3 
REMARK    2  A    between atoms: C3_3  and  C4_4 
REMARK    3  A    between atoms: C9_10  and  O1_12 
ROOT
ATOM      1  C4  <0> d           1.370  -1.717   1.161  0.00  0.00    -0.026 C 
ATOM      2  H1  <0> d           0.502  -2.376   1.125  0.00  0.00     0.044 H 
ATOM      3  C5  <0> d           1.360  -0.934   2.476  0.00  0.00    -0.059 C 
ATOM      4  C6  <0> d           1.413  -1.912   3.652  0.00  0.00    -0.065 C 
ATOM      5  C7  <0> d           2.692  -2.747   3.565  0.00  0.00    -0.063 C 
ATOM      6  C8  <0> d           2.701  -3.529   2.250  0.00  0.00    -0.041 C 
ATOM      7  C9  <0> d           2.649  -2.552   1.074  0.00  0.00     0.039 C 
ATOM      8  H2  <0> d           2.656  -3.110   0.138  0.00  0.00     0.083 H 
ATOM      9  H8  <0> d           2.228  -0.275   2.513  0.00  0.00     0.033 H 
ATOM     10  H9  <0> d           0.449  -0.340   2.538  0.00  0.00     0.033 H 
ATOM     11  H10 <0> d           1.406  -1.354   4.588  0.00  0.00     0.033 H 
ATOM     12  H11 <0> d           0.545  -2.571   3.615  0.00  0.00     0.033 H 
ATOM     13  H12 <0> d           3.559  -2.087   3.601  0.00  0.00     0.033 H 
ATOM     14  H13 <0> d           2.729  -3.443   4.402  0.00  0.00     0.033 H 
ATOM     15  H14 <0> d           3.613  -4.124   2.188  0.00  0.00     0.036 H 
ATOM     16  H15 <0> d           1.834  -4.189   2.213  0.00  0.00     0.036 H 
ENDROOT
BRANCH   1  17
ATOM     17  C3  <0> d           1.317  -0.740  -0.015  0.00  0.00    -0.045 C 
ATOM     18  H6  <0> d           1.413  -1.291  -0.950  0.00  0.00     0.039 H 
ATOM     19  H7  <0> d           2.135  -0.024   0.071  0.00  0.00     0.039 H 
BRANCH  17  20
ATOM     20  C2  <0> d           0.002  -0.004   0.002  0.00  0.00    -0.112 C 
ATOM     21  C1  <0> d          -0.016   1.306   0.009  0.00  0.00    -0.125 C 
ATOM     22  H3  <0> d           0.912   1.859   0.003  0.00  0.00     0.066 H 
ATOM     23  H4  <0> d          -0.958   1.833   0.017  0.00  0.00     0.066 H 
ATOM     24  H5  <0> d          -0.926  -0.557   0.008  0.00  0.00     0.075 H 
ENDBRANCH  17  20
ENDBRANCH   1  17
BRANCH   7  25
ATOM     25  O1  <0> d           3.786  -1.688   1.122  0.00  0.00    -0.395 OA
ATOM     26  H16 <0> d           4.634  -2.150   1.071  0.00  0.00     0.210 HD
ENDBRANCH   7  25
TORSDOF 3
