REMARK  5 active torsions:
REMARK  status: ('A' for Active; 'I' for Inactive)
REMARK    1  A    between atoms: C1_1  and  C2_2 
REMARK    2  A    between atoms: C2_2  and  C3_3 
REMARK    3  A    between atoms: C2_2  and  C4_4 
REMARK    4  A    between atoms: C2_2  and  O1_5 
REMARK    5  A    between atoms: O1_5  and  C5_6 
ROOT
ATOM      1  C2  <0> d          -2.390   1.276  -0.091  0.00  0.00     0.057 C 
ENDROOT
BRANCH   1   2
ATOM      2  C1  <0> d          -2.672   0.438   1.157  0.00  0.00    -0.048 C 
ATOM      3  H1  <0> d          -2.803   1.096   2.016  0.00  0.00     0.031 H 
ATOM      4  H2  <0> d          -3.581  -0.145   1.005  0.00  0.00     0.031 H 
ATOM      5  H3  <0> d          -1.835  -0.236   1.340  0.00  0.00     0.031 H 
ENDBRANCH   1   2
BRANCH   1   6
ATOM      6  C3  <0> d          -3.319   2.492  -0.110  0.00  0.00    -0.048 C 
ATOM      7  H4  <0> d          -3.118   3.089  -0.999  0.00  0.00     0.031 H 
ATOM      8  H5  <0> d          -4.356   2.156  -0.124  0.00  0.00     0.031 H 
ATOM      9  H6  <0> d          -3.145   3.096   0.781  0.00  0.00     0.031 H 
ENDBRANCH   1   6
BRANCH   1  10
ATOM     10  C4  <0> d          -2.634   0.429  -1.341  0.00  0.00    -0.048 C 
ATOM     11  H7  <0> d          -1.845  -0.318  -1.433  0.00  0.00     0.031 H 
ATOM     12  H8  <0> d          -3.599  -0.071  -1.258  0.00  0.00     0.031 H 
ATOM     13  H9  <0> d          -2.631   1.071  -2.221  0.00  0.00     0.031 H 
ENDBRANCH   1  10
BRANCH   1  14
ATOM     14  O1  <0> d          -1.030   1.716  -0.071  0.00  0.00    -0.340 OA
BRANCH  14  15
ATOM     15  C5  <0> d          -0.070   0.755  -0.115  0.00  0.00     0.087 A 
ATOM     16  C9  <0> d          -0.417  -0.587  -0.087  0.00  0.00     0.034 A 
ATOM     17  N1  <0> d           0.511  -1.523  -0.134  0.00  0.00    -0.270 NA
ATOM     18  H13 <0> d          -1.458  -0.869  -0.025  0.00  0.00     0.119 H 
ATOM     19  C8  <0> d           1.793  -1.226  -0.209  0.00  0.00     0.002 A 
ATOM     20  C7  <0> d           2.216   0.090  -0.242  0.00  0.00    -0.063 A 
ATOM     21  H12 <0> d           2.523  -2.022  -0.247  0.00  0.00     0.114 H 
ATOM     22  C6  <0> d           1.274   1.104  -0.194  0.00  0.00    -0.048 A 
ATOM     23  H11 <0> d           3.269   0.324  -0.304  0.00  0.00     0.085 H 
ATOM     24  H10 <0> d           1.576   2.141  -0.218  0.00  0.00     0.087 H 
ENDBRANCH  14  15
ENDBRANCH   1  14
TORSDOF 5
