REMARK  1 active torsions:
REMARK  status: ('A' for Active; 'I' for Inactive)
REMARK    1  A    between atoms: C3_4  and  N3_7 
ROOT
ATOM      1  C1  <0> d          -0.053   4.066   0.024  0.00  0.00    -0.048 A 
ATOM      2  C2  <0> d           1.148   3.374   0.009  0.00  0.00     0.022 A 
ATOM      3  N1  <0> d           1.129   2.051   0.002  0.00  0.00    -0.074 NA
ATOM      4  C3  <0> d          -0.017   1.390   0.010  0.00  0.00     0.733 A 
ATOM      5  N2  <0> d          -1.181   2.020   0.019  0.00  0.00    -0.074 NA
ATOM      6  C4  <0> d          -1.235   3.342   0.032  0.00  0.00     0.022 A 
ATOM      7  H1  <0> d          -0.068   5.146   0.031  0.00  0.00     0.087 H 
ATOM      8  H2  <0> d           2.087   3.908   0.003  0.00  0.00     0.115 H 
ATOM      9  H3  <0> d          -2.188   3.850   0.044  0.00  0.00     0.115 H 
ENDROOT
BRANCH   4  10
ATOM     10  N3  <0> d           0.002  -0.004   0.002  0.00  0.00    -0.147 N 
ATOM     11  C7  <0> d           1.106  -0.798  -0.012  0.00  0.00     0.087 A 
ATOM     12  N4  <0> d           0.721  -2.044  -0.015  0.00  0.00    -0.254 NA
ATOM     13  H6  <0> d           2.130  -0.454  -0.019  0.00  0.00     0.145 H 
ATOM     14  C6  <0> d          -0.620  -2.096  -0.004  0.00  0.00     0.019 A 
ATOM     15  C5  <0> d          -1.090  -0.835   0.013  0.00  0.00     0.020 A 
ATOM     16  H5  <0> d          -1.218  -2.995  -0.004  0.00  0.00     0.117 H 
ATOM     17  H4  <0> d          -2.127  -0.535   0.030  0.00  0.00     0.115 H 
ENDBRANCH   4  10
TORSDOF 1
