REMARK  1 active torsions:
REMARK  status: ('A' for Active; 'I' for Inactive)
REMARK    1  A    between atoms: C7_7  and  N2_10 
ROOT
ATOM      1  C1  <0> d          -0.016   1.357   0.009  0.00  0.00    -0.082 A 
ATOM      2  C2  <0> d           1.158   2.099   0.002  0.00  0.00    -0.082 A 
ATOM      3  C3  <0> d           2.370   1.460  -0.013  0.00  0.00    -0.064 A 
ATOM      4  C4  <0> d           2.409   0.081  -0.020  0.00  0.00     0.037 A 
ATOM      5  C5  <0> d           1.230  -0.699  -0.013  0.00  0.00     0.028 A 
ATOM      6  C6  <0> d           0.002  -0.004   0.002  0.00  0.00    -0.068 A 
ATOM      7  C7  <0> d           1.516  -2.125  -0.024  0.00  0.00     0.141 A 
ATOM      8  N1  <0> d           2.752  -2.531  -0.038  0.00  0.00    -0.193 NA
ATOM      9  S1  <0> d           3.689  -1.143  -0.039  0.00  0.00     0.014 SA
ATOM     10  H1  <0> d          -0.966   1.871   0.026  0.00  0.00     0.083 H 
ATOM     11  H2  <0> d           1.116   3.178   0.008  0.00  0.00     0.083 H 
ATOM     12  H3  <0> d           3.287   2.030  -0.019  0.00  0.00     0.085 H 
ATOM     13  H4  <0> d          -0.927  -0.555   0.008  0.00  0.00     0.085 H 
ENDROOT
BRANCH   7  14
ATOM     14  N2  <0> d           0.472  -3.051  -0.018  0.00  0.00    -0.383 N 
ATOM     15  H5  <0> d          -0.448  -2.745  -0.007  0.00  0.00     0.157 HD
ATOM     16  H6  <0> d           0.666  -4.002  -0.025  0.00  0.00     0.157 HD
ENDBRANCH   7  14
TORSDOF 1
