REMARK  4 active torsions:
REMARK  status: ('A' for Active; 'I' for Inactive)
REMARK    1  A    between atoms: C1_1  and  C2_2 
REMARK    2  A    between atoms: C5_5  and  C6_7 
REMARK    3  A    between atoms: C6_7  and  C7_9 
REMARK    4  A    between atoms: C6_7  and  O2_10 
ROOT
ATOM      1  C2  <0> d           2.739  -0.095  -2.914  0.00  0.00     0.049 A 
ATOM      2  C3  <0> d           3.349   1.099  -3.021  0.00  0.00    -0.052 A 
ATOM      3  C4  <0> d           2.887   1.893  -1.946  0.00  0.00    -0.049 A 
ATOM      4  C5  <0> d           2.028   1.134  -1.242  0.00  0.00     0.081 A 
ATOM      5  O1  <0> d           1.940  -0.068  -1.834  0.00  0.00    -0.317 OA
ATOM      6  H5  <0> d           4.053   1.396  -3.784  0.00  0.00     0.087 H 
ATOM      7  H6  <0> d           3.170   2.913  -1.731  0.00  0.00     0.087 H 
ENDROOT
BRANCH   4   8
ATOM      8  C6  <0> d           1.286   1.562  -0.002  0.00  0.00     0.078 C 
ATOM      9  H1  <0> d           1.123   2.650  -0.008  0.00  0.00     0.093 H 
BRANCH   8  10
ATOM     10  C7  <0> d           2.064   1.114   1.238  0.00  0.00    -0.047 C 
ATOM     11  H7  <0> d           1.522   1.426   2.143  0.00  0.00     0.031 H 
ATOM     12  H8  <0> d           3.062   1.575   1.231  0.00  0.00     0.031 H 
ATOM     13  H9  <0> d           2.165   0.019   1.231  0.00  0.00     0.031 H 
ENDBRANCH   8  10
BRANCH   8  14
ATOM     14  O2  <0> d          -0.011   0.963   0.007  0.00  0.00    -0.389 OA
ATOM     15  H10 <0> d          -0.702   1.160   0.840  0.00  0.00     0.210 HD
ENDBRANCH   8  14
ENDBRANCH   4   8
BRANCH   1  16
ATOM     16  C1  <0> d           2.921  -1.264  -3.847  0.00  0.00    -0.031 C 
ATOM     17  H2  <0> d           3.635  -0.994  -4.638  0.00  0.00     0.036 H 
ATOM     18  H3  <0> d           1.953  -1.526  -4.300  0.00  0.00     0.036 H 
ATOM     19  H4  <0> d           3.307  -2.126  -3.283  0.00  0.00     0.036 H 
ENDBRANCH   1  16
TORSDOF 4
