REMARK  3 active torsions:
REMARK  status: ('A' for Active; 'I' for Inactive)
REMARK    1  A    between atoms: C1_1  and  N1_2 
REMARK    2  A    between atoms: N1_2  and  C2_3 
REMARK    3  A    between atoms: C7_8  and  N2_9 
ROOT
ATOM      1  C2  <0> d          -1.201  -0.721   0.010  0.00  0.00     0.055 A 
ATOM      2  C3  <0> d          -2.412  -0.045   0.019  0.00  0.00    -0.034 A 
ATOM      3  C4  <0> d          -3.599  -0.756   0.026  0.00  0.00     0.036 A 
ATOM      4  C5  <0> d          -3.582  -2.139   0.024  0.00  0.00    -0.060 A 
ATOM      5  C6  <0> d          -2.378  -2.819   0.015  0.00  0.00    -0.054 A 
ATOM      6  C7  <0> d          -1.184  -2.115   0.002  0.00  0.00     0.052 A 
ATOM      7 Cl1  <0> d          -5.115   0.091   0.038  0.00  0.00    -0.084 Cl
ATOM      8  H5  <0> d          -2.429   1.034   0.021  0.00  0.00     0.089 H 
ATOM      9  H6  <0> d          -4.511  -2.689   0.030  0.00  0.00     0.086 H 
ATOM     10  H7  <0> d          -2.368  -3.899   0.013  0.00  0.00     0.087 H 
ENDROOT
BRANCH   1  11
ATOM     11  N1  <0> d           0.002  -0.004   0.002  0.00  0.00    -0.392 N 
ATOM     12  H4  <0> d           0.849  -0.478  -0.009  0.00  0.00     0.159 HD
BRANCH  11  13
ATOM     13  C1  <0> d          -0.018   1.461   0.010  0.00  0.00    -0.021 C 
ATOM     14  H1  <0> d           1.005   1.838   0.002  0.00  0.00     0.056 H 
ATOM     15  H2  <0> d          -0.545   1.822  -0.873  0.00  0.00     0.056 H 
ATOM     16  H3  <0> d          -0.528   1.812   0.907  0.00  0.00     0.056 H 
ENDBRANCH  11  13
ENDBRANCH   1  11
BRANCH   6  17
ATOM     17  N2  <0> d           0.036  -2.803  -0.013  0.00  0.00    -0.397 N 
ATOM     18  H8  <0> d           0.871  -2.309  -0.019  0.00  0.00     0.156 HD
ATOM     19  H9  <0> d           0.047  -3.772  -0.019  0.00  0.00     0.156 HD
ENDBRANCH   6  17
TORSDOF 3
