REMARK  2 active torsions:
REMARK  status: ('A' for Active; 'I' for Inactive)
REMARK    1  A    between atoms: C3_3  and  C5_7 
REMARK    2  A    between atoms: C5_7  and  O1_8 
ROOT
ATOM      1  C1  <0> d          -0.013   1.076   0.008  0.00  0.00    -0.062 A 
ATOM      2  C2  <0> d          -1.213   1.775   0.017  0.00  0.00    -0.054 A 
ATOM      3  C3  <0> d          -1.158   3.160   0.029  0.00  0.00     0.080 A 
ATOM      4  N1  <0> d           0.012   3.771   0.021  0.00  0.00    -0.153 NA
ATOM      5  N2  <0> d           1.120   3.125   0.008  0.00  0.00    -0.162 NA
ATOM      6  C4  <0> d           1.165   1.806   0.001  0.00  0.00     0.024 A 
ATOM      7  H1  <0> d           0.002  -0.004   0.002  0.00  0.00     0.085 H 
ATOM      8  H2  <0> d          -2.160   1.256   0.019  0.00  0.00     0.086 H 
ATOM      9  H3  <0> d           2.118   1.297  -0.011  0.00  0.00     0.117 H 
ENDROOT
BRANCH   3  10
ATOM     10  C5  <0> d          -2.431   3.966   0.045  0.00  0.00     0.058 C 
ATOM     11  H4  <0> d          -2.455   4.590   0.938  0.00  0.00     0.083 H 
ATOM     12  H5  <0> d          -2.471   4.599  -0.842  0.00  0.00     0.083 H 
BRANCH  10  13
ATOM     13  O1  <0> d          -3.554   3.083   0.051  0.00  0.00    -0.395 OA
ATOM     14  H6  <0> d          -4.410   3.534   0.061  0.00  0.00     0.209 HD
ENDBRANCH  10  13
ENDBRANCH   3  10
TORSDOF 2
