REMARK  4 active torsions:
REMARK  status: ('A' for Active; 'I' for Inactive)
REMARK    1  A    between atoms: C1_1  and  C2_2 
REMARK    2  A    between atoms: C2_2  and  C3_3 
REMARK    3  A    between atoms: C2_2  and  C5_5 
REMARK    4  A    between atoms: C2_2  and  O1_8 
ROOT
ATOM      1  C3  <0> d           2.034   1.131   1.191  0.00  0.00    -0.079 C 
ATOM      2  C4  <0> d           2.631   0.787   2.142  0.00  0.00    -0.151 C 
ATOM      3  H4  <0> d           3.164   0.480   2.992  0.00  0.00     0.166 H 
ENDROOT
BRANCH   1   4
ATOM      4  C2  <0> d           1.286   1.562  -0.002  0.00  0.00     0.120 C 
BRANCH   4   5
ATOM      5  C1  <0> d           1.145   3.085   0.008  0.00  0.00    -0.037 C 
ATOM      6  H1  <0> d           0.608   3.395   0.904  0.00  0.00     0.033 H 
ATOM      7  H2  <0> d           2.135   3.542   0.001  0.00  0.00     0.033 H 
ATOM      8  H3  <0> d           0.591   3.404  -0.875  0.00  0.00     0.033 H 
ENDBRANCH   4   5
BRANCH   4   9
ATOM      9  C5  <0> d           2.040   1.127  -1.261  0.00  0.00    -0.013 A 
ATOM     10  C7  <0> d           2.283  -0.370  -1.457  0.00  0.00    -0.058 A 
ATOM     11  C6  <0> d           1.254   0.359  -2.325  0.00  0.00    -0.058 A 
ATOM     12  H8  <0> d           3.217  -0.671  -1.931  0.00  0.00     0.033 H 
ATOM     13  H9  <0> d           1.906  -1.046  -0.690  0.00  0.00     0.033 H 
ATOM     14  H6  <0> d           0.200   0.163  -2.128  0.00  0.00     0.033 H 
ATOM     15  H7  <0> d           1.512   0.538  -3.368  0.00  0.00     0.033 H 
ATOM     16  H5  <0> d           2.815   1.812  -1.605  0.00  0.00     0.046 H 
ENDBRANCH   4   9
BRANCH   4  17
ATOM     17  O1  <0> d          -0.011   0.963   0.007  0.00  0.00    -0.378 OA
ATOM     18  H10 <0> d           0.002  -0.004   0.002  0.00  0.00     0.211 HD
ENDBRANCH   4  17
ENDBRANCH   1   4
TORSDOF 4
