REMARK  1 active torsions:
REMARK  status: ('A' for Active; 'I' for Inactive)
REMARK    1  A    between atoms: C1_1  and  C2_2 
ROOT
ATOM      1  C2  <0> d           1.210   3.141   0.007  0.00  0.00    -0.031 A 
ATOM      2  C3  <0> d           1.190   1.779   0.000  0.00  0.00    -0.075 A 
ATOM      3  C4  <0> d          -0.013   1.076   0.008  0.00  0.00    -0.082 A 
ATOM      4  C5  <0> d          -1.207   1.731   0.017  0.00  0.00    -0.071 A 
ATOM      5  C6  <0> d          -1.224   3.133   0.031  0.00  0.00    -0.004 A 
ATOM      6  C7  <0> d          -0.001   3.852   0.023  0.00  0.00     0.095 A 
ATOM      7  N1  <0> d          -0.033   5.188   0.031  0.00  0.00    -0.149 NA
ATOM      8  N2  <0> d          -1.147   5.829   0.046  0.00  0.00    -0.162 NA
ATOM      9  C8  <0> d          -2.331   5.231   0.053  0.00  0.00     0.025 A 
ATOM     10  C9  <0> d          -2.425   3.868   0.046  0.00  0.00    -0.052 A 
ATOM     11  H4  <0> d           2.123   1.235  -0.011  0.00  0.00     0.084 H 
ATOM     12  H5  <0> d           0.002  -0.004   0.002  0.00  0.00     0.083 H 
ATOM     13  H6  <0> d          -2.133   1.176   0.019  0.00  0.00     0.084 H 
ATOM     14  H7  <0> d          -3.230   5.829   0.066  0.00  0.00     0.117 H 
ATOM     15  H8  <0> d          -3.385   3.373   0.053  0.00  0.00     0.087 H 
ENDROOT
BRANCH   1  16
ATOM     16  C1  <0> d           2.523   3.880  -0.002  0.00  0.00    -0.049 C 
ATOM     17  H1  <0> d           3.351   3.156  -0.013  0.00  0.00     0.033 H 
ATOM     18  H2  <0> d           2.597   4.507   0.899  0.00  0.00     0.033 H 
ATOM     19  H3  <0> d           2.580   4.516  -0.897  0.00  0.00     0.033 H 
ENDBRANCH   1  16
TORSDOF 1
