REMARK  3 active torsions:
REMARK  status: ('A' for Active; 'I' for Inactive)
REMARK    1  A    between atoms: C1_1  and  C2_2 
REMARK    2  A    between atoms: C2_2  and  C3_3 
REMARK    3  A    between atoms: C3_3  and  C4_4 
ROOT
ATOM      1  C4  <0> d           1.129  -0.689  -0.013  0.00  0.00     0.035 A 
ATOM      2  C5  <0> d           2.350  -0.045  -0.021  0.00  0.00    -0.039 A 
ATOM      3  C6  <0> d           2.379   1.354  -0.013  0.00  0.00     0.048 A 
ATOM      4  C7  <0> d           1.159   2.040   0.002  0.00  0.00    -0.046 A 
ATOM      5  C8  <0> d          -0.016   1.315   0.009  0.00  0.00     0.004 A 
ATOM      6  N1  <0> d           0.002  -0.004   0.002  0.00  0.00    -0.265 NA
ATOM      7  C9  <0> d           3.622   2.065  -0.022  0.00  0.00     0.099 C 
ATOM      8  N2  <0> d           4.609   2.628  -0.028  0.00  0.00    -0.191 NA
ATOM      9  H8  <0> d           3.269  -0.612  -0.033  0.00  0.00     0.088 H 
ATOM     10  H9  <0> d           1.137   3.119   0.008  0.00  0.00     0.088 H 
ATOM     11  H10 <0> d          -0.963   1.834   0.017  0.00  0.00     0.114 H 
ENDROOT
BRANCH   1  12
ATOM     12  C3  <0> d           1.083  -2.195  -0.020  0.00  0.00    -0.025 C 
ATOM     13  H6  <0> d           0.629  -2.540  -0.948  0.00  0.00     0.042 H 
ATOM     14  H7  <0> d           2.096  -2.590   0.058  0.00  0.00     0.042 H 
BRANCH  12  15
ATOM     15  C2  <0> d           0.252  -2.686   1.168  0.00  0.00    -0.063 C 
ATOM     16  H4  <0> d           0.706  -2.340   2.096  0.00  0.00     0.033 H 
ATOM     17  H5  <0> d          -0.761  -2.291   1.090  0.00  0.00     0.033 H 
BRANCH  15  18
ATOM     18  C1  <0> d           0.205  -4.215   1.161  0.00  0.00    -0.076 C 
ATOM     19  H1  <0> d          -0.249  -4.560   0.232  0.00  0.00     0.027 H 
ATOM     20  H2  <0> d           1.218  -4.610   1.238  0.00  0.00     0.027 H 
ATOM     21  H3  <0> d          -0.387  -4.564   2.006  0.00  0.00     0.027 H 
ENDBRANCH  15  18
ENDBRANCH  12  15
ENDBRANCH   1  12
TORSDOF 3
