REMARK  3 active torsions:
REMARK  status: ('A' for Active; 'I' for Inactive)
REMARK    1  A    between atoms: C1_1  and  C2_2 
REMARK    2  A    between atoms: C1_1  and  C3_5 
REMARK    3  A    between atoms: C2_2  and  N2_4 
ROOT
ATOM      1  C2  <0> d          -1.207   1.635   0.006  0.00  0.00     0.098 C 
ATOM      2  N1  <0> d          -0.832   0.981   1.057  0.00  0.00    -0.386 N 
ATOM      3  H2  <0> d          -0.817  -0.119   1.044  0.00  0.00     0.157 HD
ATOM      4  H5  <0> d          -0.528   1.525   1.964  0.00  0.00     0.157 HD
ENDROOT
BRANCH   1   5
ATOM      5  C1  <0> d          -1.228   3.142   0.024  0.00  0.00     0.032 C 
ATOM      6  H1  <0> d          -0.287   3.706  -0.055  0.00  0.00     0.100 H 
BRANCH   5   7
ATOM      7  C3  <0> d          -2.650   3.623   0.157  0.00  0.00     0.202 C 
ATOM      8  O1  <0> d          -3.544   2.827   0.328  0.00  0.00    -0.644 OA
ATOM      9  O2  <0> d          -2.924   4.935   0.085  0.00  0.00    -0.644 OA
ENDBRANCH   5   7
ENDBRANCH   1   5
BRANCH   1  10
ATOM     10  N2  <0> d          -1.586   0.958  -1.123  0.00  0.00    -0.386 N 
ATOM     11  H3  <0> d          -1.571  -0.142  -1.136  0.00  0.00     0.157 HD
ATOM     12  H4  <0> d          -1.905   1.514  -2.017  0.00  0.00     0.157 HD
ENDBRANCH   1  10
TORSDOF 3
