REMARK  4 active torsions:
REMARK  status: ('A' for Active; 'I' for Inactive)
REMARK    1  A    between atoms: C1_1  and  C2_2 
REMARK    2  A    between atoms: C2_2  and  C3_3 
REMARK    3  A    between atoms: C3_3  and  C4_5 
REMARK    4  A    between atoms: C3_3  and  N2_8 
ROOT
ATOM      1  C4  <0> d          -2.472   0.078   0.811  0.00  0.00     0.035 C 
ATOM      2  C5  <0> d          -3.813  -0.527   0.834  0.00  0.00     0.061 C 
ATOM      3  N1  <0> d          -4.849  -0.994   0.852  0.00  0.00    -0.197 NA
ATOM      4  H7  <0> d          -1.771  -0.611   0.340  0.00  0.00     0.058 H 
ATOM      5  H8  <0> d          -2.149   0.285   1.831  0.00  0.00     0.058 H 
ENDROOT
BRANCH   1   6
ATOM      6  C3  <0> d          -2.516   1.385   0.016  0.00  0.00     0.045 C 
ATOM      7  H1  <0> d          -3.290   2.033   0.425  0.00  0.00     0.077 H 
BRANCH   6   8
ATOM      8  C2  <0> d          -2.829   1.079  -1.450  0.00  0.00    -0.047 C 
ATOM      9  H5  <0> d          -2.014   0.500  -1.883  0.00  0.00     0.035 H 
ATOM     10  H6  <0> d          -3.755   0.506  -1.512  0.00  0.00     0.035 H 
BRANCH   8  11
ATOM     11  C1  <0> d          -2.988   2.391  -2.222  0.00  0.00    -0.075 C 
ATOM     12  H2  <0> d          -3.737   3.012  -1.731  0.00  0.00     0.027 H 
ATOM     13  H3  <0> d          -2.035   2.918  -2.242  0.00  0.00     0.027 H 
ATOM     14  H4  <0> d          -3.306   2.176  -3.242  0.00  0.00     0.027 H 
ENDBRANCH   8  11
ENDBRANCH   6   8
BRANCH   6  15
ATOM     15  N2  <0> d          -1.217   2.056   0.108  0.00  0.00    -0.276 N 
ATOM     16  N3  <0> d          -1.007   3.440   0.161  0.00  0.00    -0.185 NA
ATOM     17  C8  <0> d           0.282   3.655   0.234  0.00  0.00     0.023 A 
ATOM     18  C7  <0> d           0.932   2.417   0.234  0.00  0.00    -0.048 A 
ATOM     19  H11 <0> d           0.760   4.622   0.286  0.00  0.00     0.117 H 
ATOM     20  C6  <0> d          -0.012   1.451   0.159  0.00  0.00     0.000 A 
ATOM     21  H10 <0> d           1.999   2.260   0.286  0.00  0.00     0.087 H 
ATOM     22  H9  <0> d           0.167   0.386   0.139  0.00  0.00     0.114 H 
ENDBRANCH   6  15
ENDBRANCH   1   6
TORSDOF 4
