REMARK  3 active torsions:
REMARK  status: ('A' for Active; 'I' for Inactive)
REMARK    1  A    between atoms: C2_2  and  C5_8 
REMARK    2  A    between atoms: N1_4  and  C4_6 
REMARK    3  A    between atoms: C4_6  and  O1_7 
ROOT
ATOM      1  C1  <0> d          -0.691   3.220   0.025  0.00  0.00     0.040 A 
ATOM      2  C2  <0> d          -1.137   1.878   0.017  0.00  0.00     0.077 A 
ATOM      3  C3  <0> d          -0.013   1.076   0.008  0.00  0.00     0.019 A 
ATOM      4  N1  <0> d           1.058   1.885   0.002  0.00  0.00    -0.257 N 
ATOM      5  N2  <0> d           0.613   3.212   0.013  0.00  0.00    -0.182 NA
ATOM      6  H1  <0> d          -1.321   4.097   0.034  0.00  0.00     0.119 H 
ATOM      7  H2  <0> d           0.002  -0.004   0.002  0.00  0.00     0.116 H 
ENDROOT
BRANCH   4   8
ATOM      8  C4  <0> d           2.458   1.452  -0.013  0.00  0.00     0.096 C 
ATOM      9  H3  <0> d           2.949   1.840  -0.905  0.00  0.00     0.109 H 
ATOM     10  H4  <0> d           2.965   1.831   0.874  0.00  0.00     0.109 H 
BRANCH   8  11
ATOM     11  O1  <0> d           2.515   0.024  -0.020  0.00  0.00    -0.380 OA
ATOM     12  H5  <0> d           3.413  -0.333  -0.030  0.00  0.00     0.211 HD
ENDBRANCH   8  11
ENDBRANCH   4   8
BRANCH   2  13
ATOM     13  C5  <0> d          -2.537   1.422   0.020  0.00  0.00     0.212 C 
ATOM     14  O2  <0> d          -2.789   0.233   0.015  0.00  0.00    -0.644 OA
ATOM     15  O3  <0> d          -3.539   2.322   0.029  0.00  0.00    -0.644 OA
ENDBRANCH   2  13
TORSDOF 3
