REMARK  2 active torsions:
REMARK  status: ('A' for Active; 'I' for Inactive)
REMARK    1  A    between atoms: C1_1  and  O1_2 
REMARK    2  A    between atoms: O1_2  and  C2_3 
ROOT
ATOM      1  C2  <0> d          -0.756   2.970   1.290  0.00  0.00     0.095 C 
ATOM      2  H1  <0> d           0.032   3.380   0.831  0.00  0.00     0.095 H 
ATOM      3  C3  <0> d          -0.766   3.376   2.767  0.00  0.00    -0.034 C 
ATOM      4  C4  <0> d          -0.988   4.885   2.878  0.00  0.00    -0.062 C 
ATOM      5  C5  <0> d          -2.366   5.249   2.321  0.00  0.00    -0.059 C 
ATOM      6  C6  <0> d          -2.416   4.913   0.827  0.00  0.00    -0.007 C 
ATOM      7  C7  <0> d          -2.035   3.461   0.647  0.00  0.00     0.155 C 
ATOM      8  O2  <0> d          -2.733   2.712   0.007  0.00  0.00    -0.295 OA
ATOM      9  H5  <0> d          -1.571   2.852   3.283  0.00  0.00     0.037 H 
ATOM     10  H6  <0> d           0.189   3.114   3.223  0.00  0.00     0.037 H 
ATOM     11  H7  <0> d          -0.930   5.184   3.924  0.00  0.00     0.033 H 
ATOM     12  H8  <0> d          -0.219   5.407   2.308  0.00  0.00     0.033 H 
ATOM     13  H9  <0> d          -3.132   4.680   2.848  0.00  0.00     0.033 H 
ATOM     14  H10 <0> d          -2.544   6.315   2.461  0.00  0.00     0.033 H 
ATOM     15  H11 <0> d          -3.341   5.069   0.481  0.00  0.00     0.044 H 
ATOM     16  H12 <0> d          -1.715   5.548   0.285  0.00  0.00     0.044 H 
ENDROOT
BRANCH   1  17
ATOM     17  O1  <0> d          -0.682   1.547   1.184  0.00  0.00    -0.383 OA
BRANCH  17  18
ATOM     18  C1  <0> d          -0.013   1.086   0.008  0.00  0.00     0.005 C 
ATOM     19  H2  <0> d           0.002  -0.004   0.002  0.00  0.00     0.066 H 
ATOM     20  H3  <0> d           1.010   1.463   0.000  0.00  0.00     0.066 H 
ATOM     21  H4  <0> d          -0.540   1.447  -0.875  0.00  0.00     0.066 H 
ENDBRANCH  17  18
ENDBRANCH   1  17
TORSDOF 2
