REMARK  2 active torsions:
REMARK  status: ('A' for Active; 'I' for Inactive)
REMARK    1  A    between atoms: C1_1  and  C2_2 
REMARK    2  A    between atoms: C3_4  and  C6_10 
ROOT
ATOM      1  C2  <0> d           2.700   3.584  -0.004  0.00  0.00     0.042 C 
ATOM      2  H1  <0> d           3.384   2.736  -0.016  0.00  0.00     0.056 H 
ATOM      3  C3  <0> d           1.235   3.094   0.007  0.00  0.00     0.063 C 
ATOM      4  H2  <0> d           0.685   3.504  -0.840  0.00  0.00     0.061 H 
ATOM      5  C4  <0> d           0.691   3.655   1.338  0.00  0.00     0.042 C 
ATOM      6  O1  <0> d           1.875   3.981   2.125  0.00  0.00    -0.320 OA
ATOM      7  C5  <0> d           2.852   4.367   1.284  0.00  0.00     0.263 C 
ATOM      8  O2  <0> d           3.701   5.195   1.515  0.00  0.00    -0.265 OA
ATOM      9  H6  <0> d           0.098   4.551   1.157  0.00  0.00     0.076 H 
ATOM     10  H7  <0> d           0.092   2.901   1.850  0.00  0.00     0.076 H 
ENDROOT
BRANCH   1  11
ATOM     11  C1  <0> d           2.951   4.487  -1.214  0.00  0.00    -0.063 C 
ATOM     12  H3  <0> d           2.289   5.351  -1.166  0.00  0.00     0.028 H 
ATOM     13  H4  <0> d           3.988   4.823  -1.207  0.00  0.00     0.028 H 
ATOM     14  H5  <0> d           2.756   3.930  -2.130  0.00  0.00     0.028 H 
ENDBRANCH   1  11
BRANCH   3  15
ATOM     15  C6  <0> d           1.177   1.588  -0.001  0.00  0.00     0.180 C 
ATOM     16  O3  <0> d           2.199   0.944  -0.014  0.00  0.00    -0.648 OA
ATOM     17  O4  <0> d          -0.011   0.963   0.007  0.00  0.00    -0.648 OA
ENDBRANCH   3  15
TORSDOF 2
