REMARK  3 active torsions:
REMARK  status: ('A' for Active; 'I' for Inactive)
REMARK    1  A    between atoms: C1_1  and  O1_2 
REMARK    2  A    between atoms: O1_2  and  C2_3 
REMARK    3  A    between atoms: C6_8  and  O2_11 
ROOT
ATOM      1  C2  <0> d           1.402   3.145   0.006  0.00  0.00     0.040 C 
ATOM      2  H1  <0> d           0.875   3.506  -0.877  0.00  0.00     0.083 H 
ATOM      3  C3  <0> d           0.686   3.639   1.264  0.00  0.00    -0.041 C 
ATOM      4  C4  <0> d          -0.750   3.109   1.275  0.00  0.00    -0.060 C 
ATOM      5  C5  <0> d          -0.729   1.579   1.267  0.00  0.00    -0.041 C 
ATOM      6  C6  <0> d          -0.013   1.086   0.008  0.00  0.00     0.038 C 
ATOM      7  H2  <0> d           0.002  -0.004   0.002  0.00  0.00     0.083 H 
ATOM      8  C7  <0> d           1.423   1.615  -0.003  0.00  0.00    -0.017 C 
ATOM      9  H6  <0> d           1.213   3.278   2.147  0.00  0.00     0.036 H 
ATOM     10  H7  <0> d           0.671   4.729   1.270  0.00  0.00     0.036 H 
ATOM     11  H8  <0> d          -1.260   3.461   2.172  0.00  0.00     0.033 H 
ATOM     12  H9  <0> d          -1.277   3.470   0.392  0.00  0.00     0.033 H 
ATOM     13  H10 <0> d          -1.751   1.202   1.275  0.00  0.00     0.036 H 
ATOM     14  H11 <0> d          -0.202   1.218   2.150  0.00  0.00     0.036 H 
ATOM     15  H12 <0> d           1.950   1.254   0.880  0.00  0.00     0.040 H 
ATOM     16  H13 <0> d           1.933   1.264  -0.900  0.00  0.00     0.040 H 
ENDROOT
BRANCH   1  17
ATOM     17  O1  <0> d           2.743   3.640  -0.005  0.00  0.00    -0.391 OA
BRANCH  17  18
ATOM     18  C1  <0> d           2.890   4.905  -0.652  0.00  0.00     0.004 C 
ATOM     19  H3  <0> d           2.571   4.822  -1.691  0.00  0.00     0.066 H 
ATOM     20  H4  <0> d           2.277   5.648  -0.142  0.00  0.00     0.066 H 
ATOM     21  H5  <0> d           3.936   5.211  -0.617  0.00  0.00     0.066 H 
ENDBRANCH  17  18
ENDBRANCH   1  17
BRANCH   6  22
ATOM     22  O2  <0> d          -0.704   1.559  -1.150  0.00  0.00    -0.395 OA
ATOM     23  H14 <0> d          -1.622   1.262  -1.209  0.00  0.00     0.210 HD
ENDBRANCH   6  22
TORSDOF 3
