REMARK  4 active torsions:
REMARK  status: ('A' for Active; 'I' for Inactive)
REMARK    1  A    between atoms: C1_1  and  C2_2 
REMARK    2  A    between atoms: C2_2  and  C3_3 
REMARK    3  A    between atoms: C3_3  and  O2_5 
REMARK    4  A    between atoms: O2_5  and  C4_6 
ROOT
ATOM      1  C4  <0> d          -0.065   3.842   0.016  0.00  0.00     0.079 A 
ATOM      2  C5  <0> d           1.135   3.150   0.088  0.00  0.00    -0.050 A 
ATOM      3  C6  <0> d           1.136   1.768   0.074  0.00  0.00    -0.080 A 
ATOM      4  C7  <0> d          -0.058   1.076  -0.013  0.00  0.00    -0.083 A 
ATOM      5  C8  <0> d          -1.254   1.763  -0.090  0.00  0.00    -0.080 A 
ATOM      6  C9  <0> d          -1.261   3.145  -0.070  0.00  0.00    -0.050 A 
ATOM      7  H6  <0> d           2.068   3.690   0.155  0.00  0.00     0.087 H 
ATOM      8  H7  <0> d           2.070   1.229   0.130  0.00  0.00     0.083 H 
ATOM      9  H8  <0> d          -0.055  -0.004  -0.024  0.00  0.00     0.083 H 
ATOM     10  H9  <0> d          -2.185   1.220  -0.163  0.00  0.00     0.083 H 
ATOM     11  H10 <0> d          -2.197   3.682  -0.127  0.00  0.00     0.087 H 
ENDROOT
BRANCH   1  12
ATOM     12  O2  <0> d          -0.069   5.201   0.029  0.00  0.00    -0.279 OA
BRANCH  12  13
ATOM     13  C3  <0> d          -0.572   5.798   1.121  0.00  0.00     0.263 C 
ATOM     14  O1  <0> d          -0.898   5.135   2.077  0.00  0.00    -0.265 OA
BRANCH  13  15
ATOM     15  C2  <0> d          -0.729   7.297   1.155  0.00  0.00     0.013 C 
ATOM     16  H4  <0> d          -1.403   7.613   0.345  0.00  0.00     0.047 H 
ATOM     17  H5  <0> d           0.254   7.772   1.022  0.00  0.00     0.047 H 
BRANCH  15  18
ATOM     18  C1  <0> d          -1.319   7.717   2.503  0.00  0.00    -0.068 C 
ATOM     19  H1  <0> d          -1.434   8.811   2.528  0.00  0.00     0.028 H 
ATOM     20  H2  <0> d          -0.646   7.401   3.313  0.00  0.00     0.028 H 
ATOM     21  H3  <0> d          -2.302   7.242   2.637  0.00  0.00     0.028 H 
ENDBRANCH  15  18
ENDBRANCH  13  15
ENDBRANCH  12  13
ENDBRANCH   1  12
TORSDOF 4
