REMARK  5 active torsions:
REMARK  status: ('A' for Active; 'I' for Inactive)
REMARK    1  A    between atoms: C1_1  and  C2_2 
REMARK    2  A    between atoms: C2_2  and  C3_3 
REMARK    3  A    between atoms: C3_3  and  C4_5 
REMARK    4  A    between atoms: C3_3  and  N1_6 
REMARK    5  A    between atoms: C5_7  and  N2_8 
ROOT
ATOM      1  C3  <0> d           0.718  -0.497  -1.257  0.00  0.00     0.030 C 
ATOM      2  H1  <0> d           1.710  -0.049  -1.310  0.00  0.00     0.075 H 
ENDROOT
BRANCH   1   3
ATOM      3  C2  <0> d           0.002  -0.004   0.002  0.00  0.00    -0.048 C 
ATOM      4  H6  <0> d           0.529  -0.365   0.885  0.00  0.00     0.035 H 
ATOM      5  H7  <0> d          -1.020  -0.381   0.010  0.00  0.00     0.035 H 
BRANCH   3   6
ATOM      6  C1  <0> d          -0.019   1.526   0.010  0.00  0.00    -0.075 C 
ATOM      7  H3  <0> d           1.004   1.903   0.003  0.00  0.00     0.027 H 
ATOM      8  H4  <0> d          -0.546   1.887  -0.873  0.00  0.00     0.027 H 
ATOM      9  H5  <0> d          -0.529   1.877   0.907  0.00  0.00     0.027 H 
ENDBRANCH   3   6
ENDBRANCH   1   3
BRANCH   1  10
ATOM     10  C4  <0> d          -0.089  -0.097  -2.493  0.00  0.00    -0.055 C 
ATOM     11  H8  <0> d          -1.081  -0.545  -2.440  0.00  0.00     0.030 H 
ATOM     12  H9  <0> d          -0.183   0.989  -2.530  0.00  0.00     0.030 H 
ATOM     13  H10 <0> d           0.421  -0.448  -3.390  0.00  0.00     0.030 H 
ENDBRANCH   1  10
BRANCH   1  14
ATOM     14  N1  <0> d           0.844  -1.956  -1.207  0.00  0.00    -0.273 N 
ATOM     15  N3  <0> d          -0.213  -2.872  -1.134  0.00  0.00    -0.308 N 
ATOM     16  C7  <0> d           0.288  -4.080  -1.111  0.00  0.00    -0.003 A 
ATOM     17  H2  <0> d          -1.157  -2.649  -1.107  0.00  0.00     0.186 HD
ATOM     18  C6  <0> d           1.682  -3.979  -1.159  0.00  0.00    -0.023 A 
ATOM     19  H13 <0> d          -0.277  -4.999  -1.060  0.00  0.00     0.113 H 
ATOM     20  C5  <0> d           2.001  -2.656  -1.218  0.00  0.00     0.117 A 
ATOM     21  H12 <0> d           2.380  -4.802  -1.151  0.00  0.00     0.091 H 
BRANCH  20  22
ATOM     22  N2  <0> d           3.285  -2.122  -1.278  0.00  0.00    -0.384 N 
ATOM     23  H11 <0> d           3.409  -1.161  -1.318  0.00  0.00     0.157 HD
ATOM     24  H14 <0> d           4.056  -2.711  -1.281  0.00  0.00     0.157 HD
ENDBRANCH  20  22
ENDBRANCH   1  14
TORSDOF 5
