REMARK  7 active torsions:
REMARK  status: ('A' for Active; 'I' for Inactive)
REMARK    1  A    between atoms: C1_1  and  C2_2 
REMARK    2  A    between atoms: C2_2  and  C3_3 
REMARK    3  A    between atoms: C3_3  and  C4_5 
REMARK    4  A    between atoms: C3_3  and  C5_6 
REMARK    5  A    between atoms: C5_6  and  O1_7 
REMARK    6  A    between atoms: O1_7  and  C6_8 
REMARK    7  A    between atoms: C6_8  and  C7_10 
ROOT
ATOM      1  C3  <0> d           1.125  -2.165  -0.020  0.00  0.00    -0.037 C 
ATOM      2  H1  <0> d           0.505  -2.461   0.826  0.00  0.00     0.042 H 
ENDROOT
BRANCH   1   3
ATOM      3  C2  <0> d           2.493  -2.841   0.089  0.00  0.00    -0.064 C 
ATOM      4  H5  <0> d           3.081  -2.616  -0.801  0.00  0.00     0.033 H 
ATOM      5  H6  <0> d           3.013  -2.469   0.971  0.00  0.00     0.033 H 
BRANCH   3   6
ATOM      6  C1  <0> d           2.306  -4.355   0.208  0.00  0.00    -0.076 C 
ATOM      7  H2  <0> d           3.280  -4.836   0.285  0.00  0.00     0.027 H 
ATOM      8  H3  <0> d           1.718  -4.579   1.098  0.00  0.00     0.027 H 
ATOM      9  H4  <0> d           1.786  -4.727  -0.675  0.00  0.00     0.027 H 
ENDBRANCH   3   6
ENDBRANCH   1   3
BRANCH   1  10
ATOM     10  C4  <0> d           0.447  -2.593  -1.324  0.00  0.00    -0.071 C 
ATOM     11  H7  <0> d           1.067  -2.297  -2.170  0.00  0.00     0.028 H 
ATOM     12  H8  <0> d           0.319  -3.675  -1.328  0.00  0.00     0.028 H 
ATOM     13  H9  <0> d          -0.528  -2.111  -1.401  0.00  0.00     0.028 H 
ENDBRANCH   1  10
BRANCH   1  14
ATOM     14  C5  <0> d           1.305  -0.646  -0.014  0.00  0.00     0.032 C 
ATOM     15  H10 <0> d           1.849  -0.340  -0.907  0.00  0.00     0.075 H 
ATOM     16  H11 <0> d           1.866  -0.350   0.872  0.00  0.00     0.075 H 
BRANCH  14  17
ATOM     17  O1  <0> d           0.002  -0.004   0.002  0.00  0.00    -0.321 OA
BRANCH  17  18
ATOM     18  C6  <0> d          -0.016   1.338   0.009  0.00  0.00     0.254 C 
ATOM     19  O2  <0> d           1.022   1.956   0.003  0.00  0.00    -0.266 OA
BRANCH  18  20
ATOM     20  C7  <0> d          -1.331   2.074   0.020  0.00  0.00     0.004 C 
ATOM     21  H12 <0> d          -1.643   2.245   1.050  0.00  0.00     0.041 H 
ATOM     22  H13 <0> d          -1.216   3.031  -0.490  0.00  0.00     0.041 H 
ATOM     23  H14 <0> d          -2.085   1.477  -0.494  0.00  0.00     0.041 H 
ENDBRANCH  18  20
ENDBRANCH  17  18
ENDBRANCH  14  17
ENDBRANCH   1  14
TORSDOF 7
