REMARK  2 active torsions:
REMARK  status: ('A' for Active; 'I' for Inactive)
REMARK    1  A    between atoms: C1_1  and  C2_2 
REMARK    2  A    between atoms: C2_2  and  C4_6 
ROOT
ATOM      1  C2  <0> d          -2.491   3.915   0.044  0.00  0.00     0.069 C 
ATOM      2  H1  <0> d          -2.328   4.900   0.482  0.00  0.00     0.072 H 
ATOM      3  C3  <0> d          -3.483   3.180   0.846  0.00  0.00     0.070 C 
ATOM      4  N1  <0> d          -4.249   2.613   1.465  0.00  0.00    -0.197 NA
ENDROOT
BRANCH   1   5
ATOM      5  C1  <0> d          -3.008   4.072  -1.387  0.00  0.00    -0.056 C 
ATOM      6  H2  <0> d          -2.273   4.617  -1.981  0.00  0.00     0.029 H 
ATOM      7  H3  <0> d          -3.171   3.087  -1.825  0.00  0.00     0.029 H 
ATOM      8  H4  <0> d          -3.947   4.625  -1.376  0.00  0.00     0.029 H 
ENDBRANCH   1   5
BRANCH   1   9
ATOM      9  C4  <0> d          -1.192   3.151   0.029  0.00  0.00     0.051 A 
ATOM     10  N2  <0> d          -0.050   3.809   0.022  0.00  0.00    -0.264 NA
ATOM     11  C8  <0> d           1.111   3.182   0.008  0.00  0.00     0.003 A 
ATOM     12  C7  <0> d           1.169   1.802   0.001  0.00  0.00    -0.066 A 
ATOM     13  H8  <0> d           2.027   3.755   0.002  0.00  0.00     0.114 H 
ATOM     14  C6  <0> d          -0.013   1.076   0.008  0.00  0.00    -0.080 A 
ATOM     15  H7  <0> d           2.122   1.295  -0.011  0.00  0.00     0.085 H 
ATOM     16  C5  <0> d          -1.213   1.769   0.017  0.00  0.00    -0.058 A 
ATOM     17  H6  <0> d           0.002  -0.004   0.002  0.00  0.00     0.083 H 
ATOM     18  H5  <0> d          -2.152   1.236   0.019  0.00  0.00     0.086 H 
ENDBRANCH   1   9
TORSDOF 2
