REMARK  2 active torsions:
REMARK  status: ('A' for Active; 'I' for Inactive)
REMARK    1  A    between atoms: C1_1  and  O1_2 
REMARK    2  A    between atoms: O1_2  and  C2_3 
ROOT
ATOM      1  C2  <0> d           0.625  -0.617   1.040  0.00  0.00     0.143 A 
ATOM      2  C3  <0> d           0.745  -1.953   1.193  0.00  0.00    -0.022 A 
ATOM      3  C4  <0> d           1.481  -2.176   2.439  0.00  0.00    -0.005 A 
ATOM      4  C5  <0> d           1.907  -3.317   3.122  0.00  0.00    -0.071 A 
ATOM      5  C6  <0> d           2.593  -3.188   4.297  0.00  0.00    -0.082 A 
ATOM      6  C7  <0> d           2.869  -1.931   4.817  0.00  0.00    -0.081 A 
ATOM      7  C8  <0> d           2.458  -0.792   4.159  0.00  0.00    -0.056 A 
ATOM      8  C9  <0> d           1.759  -0.900   2.962  0.00  0.00     0.044 A 
ATOM      9  N1  <0> d           1.231   0.026   2.085  0.00  0.00    -0.336 N 
ATOM     10  H1  <0> d           1.280   0.989   2.195  0.00  0.00     0.168 HD
ATOM     11  H5  <0> d           0.369  -2.713   0.524  0.00  0.00     0.091 H 
ATOM     12  H6  <0> d           1.694  -4.298   2.724  0.00  0.00     0.084 H 
ATOM     13  H7  <0> d           2.922  -4.071   4.825  0.00  0.00     0.083 H 
ATOM     14  H8  <0> d           3.412  -1.845   5.747  0.00  0.00     0.083 H 
ATOM     15  H9  <0> d           2.679   0.181   4.572  0.00  0.00     0.086 H 
ENDROOT
BRANCH   1  16
ATOM     16  O1  <0> d           0.002  -0.004   0.002  0.00  0.00    -0.341 OA
BRANCH  16  17
ATOM     17  C1  <0> d          -0.017   1.425   0.010  0.00  0.00     0.012 C 
ATOM     18  H2  <0> d           1.005   1.802   0.002  0.00  0.00     0.067 H 
ATOM     19  H3  <0> d          -0.544   1.786  -0.873  0.00  0.00     0.067 H 
ATOM     20  H4  <0> d          -0.527   1.776   0.907  0.00  0.00     0.067 H 
ENDBRANCH  16  17
ENDBRANCH   1  16
TORSDOF 2
