REMARK  0 active torsions:
REMARK  status: ('A' for Active; 'I' for Inactive)
ROOT
ATOM      1  C1  <0> d           2.475   5.138   0.175  0.00  0.00    -0.082 A 
ATOM      2  C2  <0> d           1.346   5.818  -0.244  0.00  0.00    -0.082 A 
ATOM      3  C3  <0> d           0.208   5.115  -0.585  0.00  0.00    -0.073 A 
ATOM      4  C4  <0> d           0.191   3.731  -0.509  0.00  0.00    -0.015 A 
ATOM      5  C5  <0> d           1.317   3.052  -0.095  0.00  0.00    -0.021 A 
ATOM      6  C6  <0> d           2.459   3.760   0.249  0.00  0.00    -0.075 A 
ATOM      7  C7  <0> d           1.350   1.549  -0.003  0.00  0.00     0.136 C 
ATOM      8  N1  <0> d          -0.012   1.005   0.008  0.00  0.00     0.090 N 
ATOM      9  C8  <0> d          -0.778   1.528  -1.134  0.00  0.00     0.143 C 
ATOM     10  C9  <0> d          -1.077   3.006  -0.882  0.00  0.00     0.130 C 
ATOM     11  H1  <0> d          -1.845   3.143  -0.107  0.00  0.00     0.102 H 
ATOM     12  F1  <0> d          -1.614   3.576  -2.041  0.00  0.00    -0.242 F 
ATOM     13  H2  <0> d           3.367   5.684   0.445  0.00  0.00     0.083 H 
ATOM     14  H3  <0> d           1.355   6.896  -0.304  0.00  0.00     0.083 H 
ATOM     15  H4  <0> d          -0.673   5.646  -0.912  0.00  0.00     0.084 H 
ATOM     16  H5  <0> d           3.342   3.230   0.575  0.00  0.00     0.084 H 
ATOM     17  H6  <0> d           1.892   1.140  -0.868  0.00  0.00     0.086 H 
ATOM     18  H7  <0> d           1.861   1.250   0.924  0.00  0.00     0.086 H 
ATOM     19  H8  <0> d           0.031  -0.092  -0.061  0.00  0.00     0.316 HD
ATOM     20  H9  <0> d          -0.187   1.417  -2.055  0.00  0.00     0.084 H 
ATOM     21  H10 <0> d          -1.719   0.967  -1.233  0.00  0.00     0.084 H 
ENDROOT
TORSDOF 0
