REMARK  1 active torsions:
REMARK  status: ('A' for Active; 'I' for Inactive)
REMARK    1  A    between atoms: C3_4  and  N2_6 
ROOT
ATOM      1  C1  <0> d          -0.016   1.351   0.009  0.00  0.00     0.033 A 
ATOM      2  C2  <0> d           0.002  -0.004   0.002  0.00  0.00     0.095 A 
ATOM      3  S1  <0> d           1.762  -0.313  -0.016  0.00  0.00    -0.039 SA
ATOM      4  C3  <0> d           2.283   1.344  -0.013  0.00  0.00     0.165 A 
ATOM      5  N1  <0> d           1.137   1.996   0.002  0.00  0.00    -0.235 NA
ATOM      6 Cl1  <0> d          -1.320  -1.129   0.009  0.00  0.00    -0.075 Cl
ATOM      7  H1  <0> d          -0.952   1.891   0.017  0.00  0.00     0.118 H 
ENDROOT
BRANCH   4   8
ATOM      8  N2  <0> d           3.573   1.851  -0.022  0.00  0.00    -0.378 N 
ATOM      9  H2  <0> d           3.737   2.939  -0.018  0.00  0.00     0.158 HD
ATOM     10  H3  <0> d           4.434   1.166  -0.034  0.00  0.00     0.158 HD
ENDBRANCH   4   8
TORSDOF 1
