REMARK  3 active torsions:
REMARK  status: ('A' for Active; 'I' for Inactive)
REMARK    1  A    between atoms: C1_1  and  C2_2 
REMARK    2  A    between atoms: C2_2  and  N1_3 
REMARK    3  A    between atoms: C5_7  and  C6_8 
ROOT
ATOM      1  N1  <0> d          -0.749   3.044   1.275  0.00  0.00    -0.335 N 
ATOM      2  C3  <0> d           0.135   3.857   1.900  0.00  0.00    -0.002 A 
ATOM      3  C4  <0> d          -0.249   5.133   1.650  0.00  0.00     0.020 A 
ATOM      4  N2  <0> d          -1.345   5.101   0.897  0.00  0.00    -0.236 NA
ATOM      5  C5  <0> d          -1.667   3.847   0.657  0.00  0.00     0.207 A 
ATOM      6  H6  <0> d           0.987   3.547   2.486  0.00  0.00     0.113 H 
ATOM      7  H7  <0> d           0.248   6.024   2.005  0.00  0.00     0.117 H 
ENDROOT
BRANCH   1   8
ATOM      8  C2  <0> d          -0.729   1.579   1.267  0.00  0.00    -0.002 C 
ATOM      9  H4  <0> d          -1.751   1.202   1.275  0.00  0.00     0.064 H 
ATOM     10  H5  <0> d          -0.202   1.218   2.150  0.00  0.00     0.064 H 
BRANCH   8  11
ATOM     11  C1  <0> d          -0.013   1.086   0.008  0.00  0.00    -0.061 C 
ATOM     12  H1  <0> d           0.002  -0.004   0.002  0.00  0.00     0.029 H 
ATOM     13  H2  <0> d           1.010   1.463   0.000  0.00  0.00     0.029 H 
ATOM     14  H3  <0> d          -0.540   1.447  -0.875  0.00  0.00     0.029 H 
ENDBRANCH   8  11
ENDBRANCH   1   8
BRANCH   5  15
ATOM     15  C6  <0> d          -2.816   3.388  -0.140  0.00  0.00     0.247 C 
ATOM     16  O1  <0> d          -3.013   2.199  -0.295  0.00  0.00    -0.642 OA
ATOM     17  O2  <0> d          -3.651   4.288  -0.699  0.00  0.00    -0.642 OA
ENDBRANCH   5  15
TORSDOF 3
