REMARK  3 active torsions:
REMARK  status: ('A' for Active; 'I' for Inactive)
REMARK    1  A    between atoms: C1_1  and  C2_2 
REMARK    2  A    between atoms: C2_2  and  C3_3 
REMARK    3  A    between atoms: C5_6  and  C7_10 
ROOT
ATOM      1  C3  <0> d          -0.017   1.378   0.011  0.00  0.00     0.013 A 
ATOM      2  C4  <0> d           0.002  -0.004   0.002  0.00  0.00     0.014 A 
ATOM      3  N1  <0> d           1.167  -0.634  -0.013  0.00  0.00    -0.247 NA
ATOM      4  C5  <0> d           2.301   0.037  -0.020  0.00  0.00     0.101 A 
ATOM      5  N2  <0> d           2.328   1.355  -0.013  0.00  0.00    -0.323 N 
ATOM      6  C6  <0> d           1.201   2.057   0.003  0.00  0.00     0.188 A 
ATOM      7  O1  <0> d           1.234   3.411   0.009  0.00  0.00    -0.172 OA
ATOM      8  H6  <0> d          -0.857  -0.516   0.007  0.00  0.00     0.115 H 
ATOM      9  H7  <0> d           3.292   1.885  -0.020  0.00  0.00     0.169 HD
ENDROOT
BRANCH   1  10
ATOM     10  C2  <0> d          -1.321   2.133   0.028  0.00  0.00    -0.039 C 
ATOM     11  H4  <0> d          -1.207   3.048   0.626  0.00  0.00     0.039 H 
ATOM     12  H5  <0> d          -2.105   1.500   0.470  0.00  0.00     0.039 H 
BRANCH  10  13
ATOM     13  C1  <0> d          -1.714   2.505  -1.404  0.00  0.00    -0.072 C 
ATOM     14  H1  <0> d          -2.666   3.056  -1.391  0.00  0.00     0.028 H 
ATOM     15  H2  <0> d          -1.827   1.589  -2.003  0.00  0.00     0.028 H 
ATOM     16  H3  <0> d          -0.930   3.138  -1.846  0.00  0.00     0.028 H 
ENDBRANCH  10  13
ENDBRANCH   1  10
BRANCH   4  17
ATOM     17  C7  <0> d           3.603  -0.722  -0.036  0.00  0.00    -0.021 C 
ATOM     18  H8  <0> d           4.442  -0.011  -0.040  0.00  0.00     0.037 H 
ATOM     19  H9  <0> d           3.650  -1.350  -0.938  0.00  0.00     0.037 H 
ATOM     20  H10 <0> d           3.667  -1.360   0.858  0.00  0.00     0.037 H 
ENDBRANCH   4  17
TORSDOF 3
