REMARK  1 active torsions:
REMARK  status: ('A' for Active; 'I' for Inactive)
REMARK    1  A    between atoms: C6_7  and  C7_8 
ROOT
ATOM      1  C1  <0> d           0.981   2.057   0.431  0.00  0.00    -0.024 C 
ATOM      2  C2  <0> d          -0.405   1.483   0.750  0.00  0.00     0.023 C 
ATOM      3  O1  <0> d          -0.369   0.060   0.616  0.00  0.00    -0.391 OA
ATOM      4  C3  <0> d           0.481  -0.602   1.555  0.00  0.00     0.023 C 
ATOM      5  C4  <0> d           1.936  -0.191   1.299  0.00  0.00    -0.024 C 
ATOM      6  C5  <0> d           2.001   1.323   1.278  0.00  0.00    -0.069 C 
ATOM      7  C6  <0> d           2.920   1.983   1.978  0.00  0.00    -0.007 C 
ATOM      8  H1  <0> d           1.206   1.910  -0.625  0.00  0.00     0.042 H 
ATOM      9  H2  <0> d           1.002   3.120   0.668  0.00  0.00     0.042 H 
ATOM     10  H3  <0> d          -1.138   1.895   0.057  0.00  0.00     0.074 H 
ATOM     11  H4  <0> d          -0.681   1.745   1.771  0.00  0.00     0.074 H 
ATOM     12  H5  <0> d           0.195  -0.318   2.567  0.00  0.00     0.074 H 
ATOM     13  H6  <0> d           0.381  -1.681   1.438  0.00  0.00     0.074 H 
ATOM     14  H7  <0> d           2.573  -0.576   2.095  0.00  0.00     0.042 H 
ATOM     15  H8  <0> d           2.267  -0.588   0.339  0.00  0.00     0.042 H 
ATOM     16  H9  <0> d           3.528   1.459   2.700  0.00  0.00     0.094 H 
ENDROOT
BRANCH   7  17
ATOM     17  C7  <0> d           3.106   3.426   1.769  0.00  0.00     0.198 C 
ATOM     18  O2  <0> d           2.511   3.992   0.873  0.00  0.00    -0.644 OA
ATOM     19  O3  <0> d           3.937   4.122   2.571  0.00  0.00    -0.644 OA
ENDBRANCH   7  17
TORSDOF 1
