REMARK  0 active torsions:
REMARK  status: ('A' for Active; 'I' for Inactive)
ROOT
ATOM      1  C1  <0> d          -0.013   1.086   0.008  0.00  0.00    -0.061 C 
ATOM      2  C2  <0> d          -0.717   1.573   1.273  0.00  0.00    -0.055 C 
ATOM      3  C3  <0> d          -1.976   2.364   0.899  0.00  0.00     0.004 C 
ATOM      4  C4  <0> d          -1.551   3.579   0.065  0.00  0.00    -0.055 C 
ATOM      5  C5  <0> d          -0.822   3.114  -1.203  0.00  0.00    -0.061 C 
ATOM      6  C6  <0> d          -0.742   1.587  -1.239  0.00  0.00    -0.048 C 
ATOM      7  C7  <0> d          -2.162   0.998  -1.264  0.00  0.00    -0.006 C 
ATOM      8  C8  <0> d          -2.836   1.477   0.012  0.00  0.00     0.131 C 
ATOM      9  O1  <0> d          -3.970   1.176   0.299  0.00  0.00    -0.298 OA
ATOM     10  H1  <0> d           0.002  -0.004   0.002  0.00  0.00     0.033 H 
ATOM     11  H2  <0> d           1.011   1.459   0.000  0.00  0.00     0.033 H 
ATOM     12  H3  <0> d          -0.997   0.716   1.885  0.00  0.00     0.034 H 
ATOM     13  H4  <0> d          -0.042   2.215   1.839  0.00  0.00     0.034 H 
ATOM     14  H5  <0> d          -2.457   2.637   1.732  0.00  0.00     0.051 H 
ATOM     15  H6  <0> d          -2.434   4.154  -0.214  0.00  0.00     0.034 H 
ATOM     16  H7  <0> d          -0.882   4.207   0.653  0.00  0.00     0.034 H 
ATOM     17  H8  <0> d           0.186   3.527  -1.220  0.00  0.00     0.033 H 
ATOM     18  H9  <0> d          -1.368   3.465  -2.079  0.00  0.00     0.033 H 
ATOM     19  H10 <0> d          -0.200   1.271  -2.130  0.00  0.00     0.040 H 
ATOM     20  H11 <0> d          -2.643   1.324  -2.078  0.00  0.00     0.044 H 
ATOM     21  H12 <0> d          -2.116  -0.091  -1.281  0.00  0.00     0.044 H 
ENDROOT
TORSDOF 0
