REMARK  0 active torsions:
REMARK  status: ('A' for Active; 'I' for Inactive)
ROOT
ATOM      1  C1  <0> d           0.002  -0.004   0.002  0.00  0.00     0.083 A 
ATOM      2  N1  <0> d           1.308  -0.390  -0.013  0.00  0.00    -0.215 NA
ATOM      3  C2  <0> d           2.035   0.760  -0.013  0.00  0.00     0.217 A 
ATOM      4  N2  <0> d           1.187   1.754   0.000  0.00  0.00    -0.146 NA
ATOM      5  N3  <0> d          -0.016   1.301   0.009  0.00  0.00    -0.269 N 
ATOM      6 Br1  <0> d           3.921   0.895  -0.032  0.00  0.00    -0.005 Br
ATOM      7  H1  <0> d          -0.859  -0.656   0.006  0.00  0.00     0.145 H 
ATOM      8  H2  <0> d          -0.976   1.838   0.021  0.00  0.00     0.190 HD
ENDROOT
TORSDOF 0
