REMARK  2 active torsions:
REMARK  status: ('A' for Active; 'I' for Inactive)
REMARK    1  A    between atoms: C1_1  and  C2_2 
REMARK    2  A    between atoms: C8_12  and  C9_14 
ROOT
ATOM      1  C2  <0> d          -0.663   1.110  -0.818  0.00  0.00    -0.053 C 
ATOM      2  H1  <0> d          -0.025   1.638  -1.526  0.00  0.00     0.040 H 
ATOM      3  C3  <0> d           0.086   0.879   0.515  0.00  0.00    -0.058 C 
ATOM      4  C4  <0> d          -0.757   1.642   1.582  0.00  0.00    -0.049 C 
ATOM      5  H2  <0> d          -0.602   1.338   2.617  0.00  0.00     0.040 H 
ATOM      6  C5  <0> d          -2.205   1.437   1.003  0.00  0.00    -0.056 C 
ATOM      7  C6  <0> d          -1.891   1.990  -0.432  0.00  0.00    -0.035 C 
ATOM      8  H3  <0> d          -2.719   1.990  -1.140  0.00  0.00     0.042 H 
ATOM      9  C7  <0> d          -1.281   3.386  -0.097  0.00  0.00     0.037 C 
ATOM     10  H4  <0> d          -0.593   3.698  -0.883  0.00  0.00     0.064 H 
ATOM     11  C8  <0> d          -0.527   3.149   1.256  0.00  0.00    -0.038 C 
ATOM     12  H5  <0> d          -0.944   3.776   2.045  0.00  0.00     0.042 H 
ATOM     13  C10 <0> d          -2.349   4.384   0.077  0.00  0.00     0.064 C 
ATOM     14  N1  <0> d          -3.173   5.154   0.212  0.00  0.00    -0.197 NA
ATOM     15  H9  <0> d           0.124  -0.185   0.750  0.00  0.00     0.034 H 
ATOM     16  H10 <0> d           1.094   1.291   0.461  0.00  0.00     0.034 H 
ATOM     17  H11 <0> d          -2.943   2.047   1.524  0.00  0.00     0.034 H 
ATOM     18  H12 <0> d          -2.493   0.386   0.982  0.00  0.00     0.034 H 
ENDROOT
BRANCH  11  19
ATOM     19  C9  <0> d           0.966   3.436   1.082  0.00  0.00    -0.071 C 
ATOM     20  H13 <0> d           1.327   2.944   0.179  0.00  0.00     0.028 H 
ATOM     21  H14 <0> d           1.122   4.511   0.997  0.00  0.00     0.028 H 
ATOM     22  H15 <0> d           1.512   3.056   1.946  0.00  0.00     0.028 H 
ENDBRANCH  11  19
BRANCH   1  23
ATOM     23  C1  <0> d          -1.124  -0.224  -1.409  0.00  0.00    -0.072 C 
ATOM     24  H6  <0> d          -1.774  -0.732  -0.695  0.00  0.00     0.028 H 
ATOM     25  H7  <0> d          -1.673  -0.041  -2.333  0.00  0.00     0.028 H 
ATOM     26  H8  <0> d          -0.256  -0.848  -1.618  0.00  0.00     0.028 H 
ENDBRANCH   1  23
TORSDOF 2
