REMARK  1 active torsions:
REMARK  status: ('A' for Active; 'I' for Inactive)
REMARK    1  A    between atoms: C1_1  and  N1_2 
ROOT
ATOM      1  N1  <0> d           3.503  -0.748  -0.035  0.00  0.00    -0.329 N 
ATOM      2  C2  <0> d           3.003  -2.016  -0.037  0.00  0.00     0.068 A 
ATOM      3  N2  <0> d           1.701  -1.972  -0.025  0.00  0.00    -0.234 NA
ATOM      4  C3  <0> d           1.301  -0.680  -0.014  0.00  0.00     0.172 A 
ATOM      5  C4  <0> d           2.447   0.110  -0.021  0.00  0.00     0.166 A 
ATOM      6  N3  <0> d           2.308   1.471  -0.012  0.00  0.00    -0.224 NA
ATOM      7  C5  <0> d           1.088   2.037   0.003  0.00  0.00     0.069 A 
ATOM      8  N4  <0> d          -0.016   1.343   0.009  0.00  0.00    -0.316 N 
ATOM      9  C6  <0> d           0.002  -0.004   0.002  0.00  0.00     0.279 A 
ATOM     10  O1  <0> d          -1.037  -0.644   0.009  0.00  0.00    -0.265 OA
ATOM     11  H4  <0> d           3.595  -2.919  -0.048  0.00  0.00     0.143 H 
ATOM     12  H5  <0> d           1.020   3.115   0.009  0.00  0.00     0.143 H 
ATOM     13  H6  <0> d          -0.989   1.856   0.021  0.00  0.00     0.170 HD
ENDROOT
BRANCH   1  14
ATOM     14  C1  <0> d           4.920  -0.376  -0.047  0.00  0.00    -0.012 C 
ATOM     15  H1  <0> d           5.538  -1.286  -0.058  0.00  0.00     0.057 H 
ATOM     16  H2  <0> d           5.152   0.214   0.852  0.00  0.00     0.057 H 
ATOM     17  H3  <0> d           5.135   0.224  -0.944  0.00  0.00     0.057 H 
ENDBRANCH   1  14
TORSDOF 1
