REMARK  7 active torsions:
REMARK  status: ('A' for Active; 'I' for Inactive)
REMARK    1  A    between atoms: C1_1  and  C2_2 
REMARK    2  A    between atoms: C2_2  and  O2_4 
REMARK    3  A    between atoms: O2_4  and  C3_5 
REMARK    4  A    between atoms: C3_5  and  C4_6 
REMARK    5  A    between atoms: C5_7  and  O3_8 
REMARK    6  A    between atoms: O3_8  and  C6_9 
REMARK    7  A    between atoms: C6_9  and  C7_11 
ROOT
ATOM      1  C4  <0> d          -0.016   1.313   0.009  0.00  0.00    -0.058 C 
ATOM      2  C5  <0> d           0.002  -0.004   0.002  0.00  0.00     0.021 C 
ATOM      3  H6  <0> d           0.912   1.865   0.003  0.00  0.00     0.083 H 
ATOM      4  H7  <0> d          -0.926  -0.557   0.008  0.00  0.00     0.123 H 
ENDROOT
BRANCH   1   5
ATOM      5  C3  <0> d          -1.331   2.049   0.019  0.00  0.00     0.045 C 
ATOM      6  H4  <0> d          -1.523   2.463  -0.970  0.00  0.00     0.081 H 
ATOM      7  H5  <0> d          -2.131   1.358   0.285  0.00  0.00     0.081 H 
BRANCH   5   8
ATOM      8  O2  <0> d          -1.276   3.124   0.993  0.00  0.00    -0.318 OA
BRANCH   8   9
ATOM      9  C2  <0> d          -2.376   3.882   1.127  0.00  0.00     0.255 C 
ATOM     10  O1  <0> d          -3.353   3.653   0.453  0.00  0.00    -0.266 OA
BRANCH   9  11
ATOM     11  C1  <0> d          -2.393   5.017   2.118  0.00  0.00     0.004 C 
ATOM     12  H1  <0> d          -1.432   5.068   2.629  0.00  0.00     0.041 H 
ATOM     13  H2  <0> d          -2.576   5.955   1.593  0.00  0.00     0.041 H 
ATOM     14  H3  <0> d          -3.185   4.849   2.849  0.00  0.00     0.041 H 
ENDBRANCH   9  11
ENDBRANCH   8   9
ENDBRANCH   5   8
ENDBRANCH   1   5
BRANCH   2  15
ATOM     15  O3  <0> d           1.186  -0.666  -0.013  0.00  0.00    -0.292 OA
BRANCH  15  16
ATOM     16  C6  <0> d           1.134  -2.008  -0.020  0.00  0.00     0.259 C 
ATOM     17  O4  <0> d           0.065  -2.571  -0.012  0.00  0.00    -0.265 OA
BRANCH  16  18
ATOM     18  C7  <0> d           2.409  -2.812  -0.036  0.00  0.00     0.004 C 
ATOM     19  H8  <0> d           3.264  -2.136  -0.041  0.00  0.00     0.041 H 
ATOM     20  H9  <0> d           2.451  -3.445   0.850  0.00  0.00     0.041 H 
ATOM     21  H10 <0> d           2.434  -3.435  -0.930  0.00  0.00     0.041 H 
ENDBRANCH  16  18
ENDBRANCH  15  16
ENDBRANCH   2  15
TORSDOF 7
