REMARK  0 active torsions:
REMARK  status: ('A' for Active; 'I' for Inactive)
ROOT
ATOM      1  C1  <0> d          -0.710   6.178   0.040  0.00  0.00    -0.082 A 
ATOM      2  C2  <0> d           0.687   6.180   0.027  0.00  0.00    -0.081 A 
ATOM      3  C3  <0> d           1.405   5.029   0.015  0.00  0.00    -0.053 A 
ATOM      4  C4  <0> d           0.732   3.788   0.015  0.00  0.00     0.090 A 
ATOM      5  C5  <0> d          -0.740   3.786   0.029  0.00  0.00     0.013 A 
ATOM      6  C6  <0> d          -1.421   5.022   0.040  0.00  0.00    -0.069 A 
ATOM      7  C7  <0> d          -1.129   2.460   0.020  0.00  0.00     0.029 A 
ATOM      8  N1  <0> d          -0.021   1.706   0.011  0.00  0.00    -0.182 N 
ATOM      9  N2  <0> d           1.114   2.525   0.005  0.00  0.00    -0.156 NA
ATOM     10 Cl1  <0> d           0.002  -0.004   0.002  0.00  0.00     0.037 Cl
ATOM     11  H1  <0> d          -1.237   7.120   0.049  0.00  0.00     0.083 H 
ATOM     12  H2  <0> d           1.210   7.125   0.026  0.00  0.00     0.083 H 
ATOM     13  H3  <0> d           2.484   5.062   0.004  0.00  0.00     0.087 H 
ATOM     14  H4  <0> d          -2.500   5.048   0.050  0.00  0.00     0.085 H 
ATOM     15  H5  <0> d          -2.145   2.095   0.023  0.00  0.00     0.117 H 
ENDROOT
TORSDOF 0
