REMARK  4 active torsions:
REMARK  status: ('A' for Active; 'I' for Inactive)
REMARK    1  A    between atoms: C1_1  and  C2_2 
REMARK    2  A    between atoms: C2_2  and  C3_3 
REMARK    3  A    between atoms: C5_5  and  N2_12 
REMARK    4  A    between atoms: C7_10  and  C8_11 
ROOT
ATOM      1  C3  <0> d          -1.249   2.973   0.030  0.00  0.00    -0.034 A 
ATOM      2  C4  <0> d          -0.060   3.717   0.023  0.00  0.00    -0.044 A 
ATOM      3  C5  <0> d           1.139   3.059   0.008  0.00  0.00     0.095 A 
ATOM      4  C6  <0> d           1.151   1.647  -0.000  0.00  0.00     0.272 A 
ATOM      5  O1  <0> d           2.212   1.045  -0.014  0.00  0.00    -0.266 OA
ATOM      6  N1  <0> d          -0.011   0.966   0.007  0.00  0.00    -0.325 N 
ATOM      7  H1  <0> d           0.003  -0.034   0.006  0.00  0.00     0.169 HD
ATOM      8  C7  <0> d          -1.203   1.622   0.017  0.00  0.00     0.015 A 
ATOM      9  H7  <0> d          -0.091   4.796   0.029  0.00  0.00     0.088 H 
ENDROOT
BRANCH   1  10
ATOM     10  C2  <0> d          -2.580   3.681   0.047  0.00  0.00    -0.042 C 
ATOM     11  H5  <0> d          -2.511   4.598  -0.538  0.00  0.00     0.039 H 
ATOM     12  H6  <0> d          -3.342   3.031  -0.384  0.00  0.00     0.039 H 
BRANCH  10  13
ATOM     13  C1  <0> d          -2.957   4.023   1.490  0.00  0.00    -0.073 C 
ATOM     14  H2  <0> d          -3.026   3.106   2.075  0.00  0.00     0.028 H 
ATOM     15  H3  <0> d          -2.195   4.672   1.920  0.00  0.00     0.028 H 
ATOM     16  H4  <0> d          -3.919   4.535   1.502  0.00  0.00     0.028 H 
ENDBRANCH  10  13
ENDBRANCH   1  10
BRANCH   8  17
ATOM     17  C8  <0> d          -2.486   0.833   0.018  0.00  0.00    -0.037 C 
ATOM     18  H8  <0> d          -2.258  -0.233   0.012  0.00  0.00     0.035 H 
ATOM     19  H9  <0> d          -3.061   1.076   0.912  0.00  0.00     0.035 H 
ATOM     20  H10 <0> d          -3.069   1.085  -0.867  0.00  0.00     0.035 H 
ENDBRANCH   8  17
BRANCH   3  21
ATOM     21  N2  <0> d           2.341   3.778   0.001  0.00  0.00    -0.395 N 
ATOM     22  H11 <0> d           3.188   3.306  -0.010  0.00  0.00     0.156 HD
ATOM     23  H12 <0> d           2.327   4.748   0.006  0.00  0.00     0.156 HD
ENDBRANCH   3  21
TORSDOF 4
