REMARK  2 active torsions:
REMARK  status: ('A' for Active; 'I' for Inactive)
REMARK    1  A    between atoms: C1_1  and  C2_2 
REMARK    2  A    between atoms: C2_2  and  C3_3 
ROOT
ATOM      1  C3  <0> d           2.110   0.820  -0.917  0.00  0.00     0.004 C 
ATOM      2  H1  <0> d           2.213   1.174  -1.847  0.00  0.00     0.051 H 
ATOM      3  C4  <0> d           1.490   1.896  -0.002  0.00  0.00    -0.055 C 
ATOM      4  C5  <0> d          -0.019   1.545   0.011  0.00  0.00    -0.058 C 
ATOM      5  C6  <0> d           0.002  -0.004   0.002  0.00  0.00    -0.009 C 
ATOM      6  C7  <0> d           1.163  -0.362  -0.909  0.00  0.00     0.131 C 
ATOM      7  O1  <0> d           1.305  -1.397  -1.514  0.00  0.00    -0.298 OA
ATOM      8  H7  <0> d           1.649   2.891  -0.419  0.00  0.00     0.034 H 
ATOM      9  H8  <0> d           1.907   1.831   1.003  0.00  0.00     0.034 H 
ATOM     10  H9  <0> d          -0.514   1.931  -0.880  0.00  0.00     0.033 H 
ATOM     11  H10 <0> d          -0.497   1.921   0.915  0.00  0.00     0.033 H 
ATOM     12  H11 <0> d           0.130  -0.341   0.935  0.00  0.00     0.044 H 
ATOM     13  H12 <0> d          -0.932  -0.395  -0.401  0.00  0.00     0.044 H 
ENDROOT
BRANCH   1  14
ATOM     14  C2  <0> d           3.478   0.398  -0.378  0.00  0.00    -0.059 C 
ATOM     15  H5  <0> d           4.117   1.276  -0.280  0.00  0.00     0.033 H 
ATOM     16  H6  <0> d           3.354  -0.072   0.598  0.00  0.00     0.033 H 
BRANCH  14  17
ATOM     17  C1  <0> d           4.123  -0.597  -1.345  0.00  0.00    -0.076 C 
ATOM     18  H2  <0> d           4.247  -0.127  -2.321  0.00  0.00     0.027 H 
ATOM     19  H3  <0> d           5.098  -0.897  -0.961  0.00  0.00     0.027 H 
ATOM     20  H4  <0> d           3.485  -1.474  -1.443  0.00  0.00     0.027 H 
ENDBRANCH  14  17
ENDBRANCH   1  14
TORSDOF 2
