REMARK  2 active torsions:
REMARK  status: ('A' for Active; 'I' for Inactive)
REMARK    1  A    between atoms: C1_1  and  C2_2 
REMARK    2  A    between atoms: C4_5  and  C5_7 
ROOT
ATOM      1  C2  <0> d           0.002  -0.004   0.002  0.00  0.00    -0.048 A 
ATOM      2  H1  <0> d          -0.291  -0.506  -0.920  0.00  0.00     0.040 H 
ATOM      3  C3  <0> d          -0.019   1.526   0.010  0.00  0.00    -0.052 A 
ATOM      4  C4  <0> d           1.317   0.779  -0.006  0.00  0.00    -0.004 A 
ATOM      5  H2  <0> d           1.889   0.792  -0.934  0.00  0.00     0.051 H 
ATOM      6  H6  <0> d          -0.325   2.030  -0.906  0.00  0.00     0.034 H 
ATOM      7  H7  <0> d          -0.307   2.020   0.938  0.00  0.00     0.034 H 
ENDROOT
BRANCH   4   8
ATOM      8  C5  <0> d           2.132   0.783   1.261  0.00  0.00     0.057 A 
ATOM      9  O1  <0> d           1.727   1.249   2.454  0.00  0.00    -0.327 OA
ATOM     10  C8  <0> d           2.711   1.088   3.354  0.00  0.00     0.019 A 
ATOM     11  C7  <0> d           3.764   0.523   2.737  0.00  0.00    -0.059 A 
ATOM     12  H10 <0> d           2.665   1.369   4.396  0.00  0.00     0.123 H 
ATOM     13  C6  <0> d           3.391   0.326   1.388  0.00  0.00    -0.052 A 
ATOM     14  H9  <0> d           4.712   0.268   3.187  0.00  0.00     0.086 H 
ATOM     15  H8  <0> d           3.999  -0.108   0.609  0.00  0.00     0.087 H 
ENDBRANCH   4   8
BRANCH   1  16
ATOM     16  C1  <0> d          -0.384  -0.723   1.296  0.00  0.00    -0.072 C 
ATOM     17  H3  <0> d          -1.336  -1.235   1.157  0.00  0.00     0.028 H 
ATOM     18  H4  <0> d           0.387  -1.450   1.551  0.00  0.00     0.028 H 
ATOM     19  H5  <0> d          -0.477   0.005   2.102  0.00  0.00     0.028 H 
ENDBRANCH   1  16
TORSDOF 2
