REMARK  1 active torsions:
REMARK  status: ('A' for Active; 'I' for Inactive)
REMARK    1  A    between atoms: C7_9  and  N3_10 
ROOT
ATOM      1  C1  <0> d          -0.783   3.584   0.029  0.00  0.00    -0.078 A 
ATOM      2  C2  <0> d           0.557   4.008   0.019  0.00  0.00    -0.067 A 
ATOM      3  C3  <0> d           1.558   3.106   0.004  0.00  0.00    -0.012 A 
ATOM      4  N1  <0> d           1.286   1.765  -0.001  0.00  0.00    -0.292 N 
ATOM      5  C4  <0> d          -0.016   1.319   0.009  0.00  0.00     0.135 A 
ATOM      6  C5  <0> d          -1.071   2.255   0.030  0.00  0.00    -0.038 A 
ATOM      7  N2  <0> d           0.002  -0.004   0.002  0.00  0.00    -0.239 NA
ATOM      8  C6  <0> d           1.271  -0.427  -0.012  0.00  0.00     0.047 A 
ATOM      9  C7  <0> d           2.088   0.656  -0.014  0.00  0.00     0.124 A 
ATOM     10  H1  <0> d          -1.582   4.311   0.041  0.00  0.00     0.083 H 
ATOM     11  H2  <0> d           0.786   5.064   0.023  0.00  0.00     0.085 H 
ATOM     12  H3  <0> d           2.584   3.444  -0.003  0.00  0.00     0.112 H 
ATOM     13  H4  <0> d          -2.097   1.919   0.043  0.00  0.00     0.089 H 
ATOM     14  H5  <0> d           1.592  -1.459  -0.021  0.00  0.00     0.120 H 
ENDROOT
BRANCH   9  15
ATOM     15  N3  <0> d           3.488   0.642  -0.027  0.00  0.00    -0.384 N 
ATOM     16  H6  <0> d           3.965  -0.202  -0.036  0.00  0.00     0.157 HD
ATOM     17  H7  <0> d           3.982   1.478  -0.027  0.00  0.00     0.157 HD
ENDBRANCH   9  15
TORSDOF 1
