REMARK  5 active torsions:
REMARK  status: ('A' for Active; 'I' for Inactive)
REMARK    1  A    between atoms: C1_1  and  C2_2 
REMARK    2  A    between atoms: C5_6  and  C8_12 
REMARK    3  A    between atoms: C7_9  and  O1_11 
REMARK    4  A    between atoms: C8_12  and  C9_13 
REMARK    5  A    between atoms: C8_12  and  C10_14 
ROOT
ATOM      1  C2  <0> d           4.314   1.145  -0.033  0.00  0.00    -0.033 C 
ATOM      2  H1  <0> d           5.337   1.522  -0.041  0.00  0.00     0.043 H 
ATOM      3  C3  <0> d           3.598   1.638   1.226  0.00  0.00    -0.059 C 
ATOM      4  C4  <0> d           2.163   1.109   1.237  0.00  0.00    -0.061 C 
ATOM      5  C5  <0> d           1.423   1.615  -0.003  0.00  0.00    -0.049 C 
ATOM      6  H2  <0> d           1.408   2.705   0.003  0.00  0.00     0.040 H 
ATOM      7  C6  <0> d           2.139   1.122  -1.262  0.00  0.00    -0.037 C 
ATOM      8  C7  <0> d           3.574   1.652  -1.272  0.00  0.00     0.039 C 
ATOM      9  H3  <0> d           3.559   2.741  -1.266  0.00  0.00     0.083 H 
ATOM     10  H7  <0> d           3.583   2.728   1.232  0.00  0.00     0.033 H 
ATOM     11  H8  <0> d           4.125   1.277   2.109  0.00  0.00     0.033 H 
ATOM     12  H9  <0> d           1.653   1.460   2.134  0.00  0.00     0.033 H 
ATOM     13  H10 <0> d           2.178   0.019   1.231  0.00  0.00     0.033 H 
ATOM     14  H11 <0> d           2.154   0.032  -1.268  0.00  0.00     0.037 H 
ATOM     15  H12 <0> d           1.612   1.483  -2.145  0.00  0.00     0.037 H 
ENDROOT
BRANCH   5  16
ATOM     16  C8  <0> d          -0.013   1.086   0.008  0.00  0.00    -0.058 C 
ATOM     17  H14 <0> d           0.002  -0.004   0.002  0.00  0.00     0.039 H 
BRANCH  16  18
ATOM     18  C9  <0> d          -0.753   1.593  -1.232  0.00  0.00    -0.073 C 
ATOM     19  H15 <0> d          -0.767   2.683  -1.226  0.00  0.00     0.028 H 
ATOM     20  H16 <0> d          -0.242   1.241  -2.128  0.00  0.00     0.028 H 
ATOM     21  H17 <0> d          -1.775   1.215  -1.224  0.00  0.00     0.028 H 
ENDBRANCH  16  18
BRANCH  16  22
ATOM     22  C10 <0> d          -0.729   1.579   1.267  0.00  0.00    -0.073 C 
ATOM     23  H18 <0> d          -0.744   2.669   1.273  0.00  0.00     0.028 H 
ATOM     24  H19 <0> d          -1.751   1.202   1.275  0.00  0.00     0.028 H 
ATOM     25  H20 <0> d          -0.202   1.218   2.150  0.00  0.00     0.028 H 
ENDBRANCH  16  22
ENDBRANCH   5  16
BRANCH   8  26
ATOM     26  O1  <0> d           4.243   1.191  -2.448  0.00  0.00    -0.395 OA
ATOM     27  H13 <0> d           3.828   1.475  -3.274  0.00  0.00     0.210 HD
ENDBRANCH   8  26
BRANCH   1  28
ATOM     28  C1  <0> d           4.335  -0.385  -0.041  0.00  0.00    -0.071 C 
ATOM     29  H4  <0> d           3.312  -0.762  -0.034  0.00  0.00     0.028 H 
ATOM     30  H5  <0> d           4.845  -0.737  -0.938  0.00  0.00     0.028 H 
ATOM     31  H6  <0> d           4.862  -0.746   0.842  0.00  0.00     0.028 H 
ENDBRANCH   1  28
TORSDOF 5
