REMARK  6 active torsions:
REMARK  status: ('A' for Active; 'I' for Inactive)
REMARK    1  A    between atoms: C1_1  and  C2_2 
REMARK    2  A    between atoms: C2_2  and  C3_3 
REMARK    3  A    between atoms: C3_3  and  C4_5 
REMARK    4  A    between atoms: C3_3  and  C5_6 
REMARK    5  A    between atoms: C5_6  and  C6_8 
REMARK    6  A    between atoms: C5_6  and  N1_12 
ROOT
ATOM      1  C3  <0> d           0.720  -0.490  -1.281  0.00  0.00    -0.020 C 
ATOM      2  H1  <0> d           0.256  -0.136  -2.202  0.00  0.00     0.043 H 
ENDROOT
BRANCH   1   3
ATOM      3  C2  <0> d          -0.086   0.008  -0.080  0.00  0.00    -0.063 C 
ATOM      4  H6  <0> d           0.413  -0.293   0.842  0.00  0.00     0.033 H 
ATOM      5  H7  <0> d          -1.086  -0.423  -0.109  0.00  0.00     0.033 H 
BRANCH   3   6
ATOM      6  C1  <0> d          -0.186   1.534  -0.130  0.00  0.00    -0.076 C 
ATOM      7  H3  <0> d           0.815   1.965  -0.101  0.00  0.00     0.027 H 
ATOM      8  H4  <0> d          -0.684   1.835  -1.052  0.00  0.00     0.027 H 
ATOM      9  H5  <0> d          -0.759   1.889   0.726  0.00  0.00     0.027 H 
ENDBRANCH   3   6
ENDBRANCH   1   3
BRANCH   1  10
ATOM     10  C4  <0> d           2.151   0.043  -1.192  0.00  0.00    -0.071 C 
ATOM     11  H8  <0> d           2.703  -0.247  -2.087  0.00  0.00     0.028 H 
ATOM     12  H9  <0> d           2.130   1.130  -1.115  0.00  0.00     0.028 H 
ATOM     13  H10 <0> d           2.640  -0.375  -0.312  0.00  0.00     0.028 H 
ENDBRANCH   1  10
BRANCH   1  14
ATOM     14  C5  <0> d           0.744  -2.020  -1.279  0.00  0.00     0.225 C 
ATOM     15  H2  <0> d           1.405  -2.374  -2.071  0.00  0.00     0.102 H 
BRANCH  14  16
ATOM     16  C6  <0> d          -0.670  -2.553  -1.518  0.00  0.00     0.418 C 
ATOM     17  F1  <0> d          -1.190  -1.987  -2.687  0.00  0.00    -0.169 F 
ATOM     18  F2  <0> d          -0.627  -3.945  -1.653  0.00  0.00    -0.169 F 
ATOM     19  F3  <0> d          -1.486  -2.215  -0.433  0.00  0.00    -0.169 F 
ENDBRANCH  14  16
BRANCH  14  20
ATOM     20  N1  <0> d           1.235  -2.501   0.019  0.00  0.00     0.092 N 
ATOM     21  H11 <0> d           2.191  -2.216   0.172  0.00  0.00     0.313 HD
ATOM     22  H12 <0> d           0.640  -2.186   0.770  0.00  0.00     0.313 HD
ENDBRANCH  14  20
ENDBRANCH   1  14
TORSDOF 6
