REMARK  4 active torsions:
REMARK  status: ('A' for Active; 'I' for Inactive)
REMARK    1  A    between atoms: C1_1  and  C2_2 
REMARK    2  A    between atoms: C2_2  and  C3_3 
REMARK    3  A    between atoms: C2_2  and  C4_4 
REMARK    4  A    between atoms: C4_4  and  O1_9 
ROOT
ATOM      1  C4  <0> d          -0.019   1.526   0.010  0.00  0.00     0.061 C 
ATOM      2  C5  <0> d          -0.700   2.052  -1.270  0.00  0.00    -0.036 C 
ATOM      3  C6  <0> d           0.110   3.320  -1.637  0.00  0.00    -0.062 C 
ATOM      4  C7  <0> d           1.562   2.912  -1.287  0.00  0.00    -0.062 C 
ATOM      5  C8  <0> d           1.420   2.072  -0.000  0.00  0.00    -0.036 C 
ATOM      6  H8  <0> d          -0.634   1.313  -2.068  0.00  0.00     0.037 H 
ATOM      7  H9  <0> d          -1.740   2.308  -1.071  0.00  0.00     0.037 H 
ATOM      8  H10 <0> d          -0.209   4.170  -1.033  0.00  0.00     0.033 H 
ATOM      9  H11 <0> d           0.018   3.547  -2.699  0.00  0.00     0.033 H 
ATOM     10  H12 <0> d           2.173   3.796  -1.100  0.00  0.00     0.033 H 
ATOM     11  H13 <0> d           1.994   2.312  -2.088  0.00  0.00     0.033 H 
ATOM     12  H14 <0> d           1.587   2.700   0.875  0.00  0.00     0.037 H 
ATOM     13  H15 <0> d           2.132   1.248  -0.012  0.00  0.00     0.037 H 
ENDROOT
BRANCH   1  14
ATOM     14  C2  <0> d           0.002  -0.004   0.002  0.00  0.00    -0.031 C 
ATOM     15  H4  <0> d           0.450  -0.366   0.927  0.00  0.00     0.043 H 
BRANCH  14  16
ATOM     16  C1  <0> d          -1.429  -0.533  -0.113  0.00  0.00    -0.070 C 
ATOM     17  H1  <0> d          -1.877  -0.171  -1.038  0.00  0.00     0.028 H 
ATOM     18  H2  <0> d          -1.414  -1.623  -0.119  0.00  0.00     0.028 H 
ATOM     19  H3  <0> d          -2.015  -0.182   0.737  0.00  0.00     0.028 H 
ENDBRANCH  14  16
BRANCH  14  20
ATOM     20  C3  <0> d           0.825  -0.496  -1.190  0.00  0.00    -0.070 C 
ATOM     21  H5  <0> d           0.377  -0.134  -2.115  0.00  0.00     0.028 H 
ATOM     22  H6  <0> d           1.845  -0.120  -1.108  0.00  0.00     0.028 H 
ATOM     23  H7  <0> d           0.840  -1.586  -1.196  0.00  0.00     0.028 H 
ENDBRANCH  14  20
ENDBRANCH   1  14
BRANCH   1  24
ATOM     24  O1  <0> d          -0.714   1.999   1.166  0.00  0.00    -0.389 OA
ATOM     25  H16 <0> d          -0.761   2.963   1.229  0.00  0.00     0.210 HD
ENDBRANCH   1  24
TORSDOF 4
