REMARK  3 active torsions:
REMARK  status: ('A' for Active; 'I' for Inactive)
REMARK    1  A    between atoms: C1_1  and  C2_2 
REMARK    2  A    between atoms: C2_2  and  C3_3 
REMARK    3  A    between atoms: C6_9  and  N3_11 
ROOT
ATOM      1  C3  <0> d           0.000   1.080   2.488  0.00  0.00     0.108 A 
ATOM      2  N1  <0> d          -0.468   1.403   3.710  0.00  0.00    -0.311 N 
ATOM      3  H1  <0> d          -1.371   2.024   3.806  0.00  0.00     0.170 HD
ATOM      4  C4  <0> d           0.166   0.968   4.819  0.00  0.00     0.250 A 
ATOM      5  O1  <0> d          -0.253   1.258   5.928  0.00  0.00    -0.268 OA
ATOM      6  C5  <0> d           1.315   0.178   4.672  0.00  0.00     0.026 A 
ATOM      7  C6  <0> d           1.750  -0.122   3.392  0.00  0.00     0.128 A 
ATOM      8  N2  <0> d           1.065   0.342   2.335  0.00  0.00    -0.218 NA
ATOM      9  H7  <0> d           1.848  -0.188   5.537  0.00  0.00     0.098 H 
ENDROOT
BRANCH   1  10
ATOM     10  C2  <0> d          -0.729   1.579   1.267  0.00  0.00    -0.013 C 
ATOM     11  H5  <0> d          -0.744   2.679   1.273  0.00  0.00     0.043 H 
ATOM     12  H6  <0> d          -1.761   1.198   1.275  0.00  0.00     0.043 H 
BRANCH  10  13
ATOM     13  C1  <0> d          -0.013   1.086   0.008  0.00  0.00    -0.070 C 
ATOM     14  H2  <0> d          -0.545   1.450  -0.883  0.00  0.00     0.028 H 
ATOM     15  H3  <0> d           0.002  -0.014   0.002  0.00  0.00     0.028 H 
ATOM     16  H4  <0> d           1.019   1.466   0.000  0.00  0.00     0.028 H 
ENDBRANCH  10  13
ENDBRANCH   1  10
BRANCH   7  17
ATOM     17  N3  <0> d           2.876  -0.897   3.205  0.00  0.00    -0.384 N 
ATOM     18  H8  <0> d           3.218  -1.133   2.186  0.00  0.00     0.157 HD
ATOM     19  H9  <0> d           3.432  -1.278   4.074  0.00  0.00     0.157 HD
ENDBRANCH   7  17
TORSDOF 3
