REMARK  2 active torsions:
REMARK  status: ('A' for Active; 'I' for Inactive)
REMARK    1  A    between atoms: C1_1  and  C2_2 
REMARK    2  A    between atoms: C4_4  and  N2_7 
REMARK       I    between atoms: N2_7  and  C5_8 
REMARK       I    between atoms: C5_8  and  N3_10 
ROOT
ATOM      1  C2  <0> d           1.041   1.923   0.002  0.00  0.00     0.078 A 
ATOM      2  C3  <0> d          -0.013   1.076   0.008  0.00  0.00    -0.006 A 
ATOM      3  C4  <0> d          -1.143   1.935   0.017  0.00  0.00     0.161 A 
ATOM      4  N1  <0> d          -0.674   3.155   0.024  0.00  0.00    -0.110 NA
ATOM      5  O1  <0> d           0.535   3.165   0.013  0.00  0.00    -0.216 OA
ATOM      6  H4  <0> d           0.002  -0.004   0.002  0.00  0.00     0.093 H 
ENDROOT
BRANCH   3   7
ATOM      7  N2  <0> d          -2.485   1.554   0.021  0.00  0.00    -0.292 N 
ATOM      8  C5  <0> d          -2.814   0.247   0.016  0.00  0.00     0.319 C 
ATOM      9  O2  <0> d          -1.942  -0.600   0.008  0.00  0.00    -0.247 OA
ATOM     10  N3  <0> d          -4.111  -0.121   0.020  0.00  0.00    -0.352 N 
ATOM     11  H6  <0> d          -4.807   0.554   0.026  0.00  0.00     0.160 HD
ATOM     12  H7  <0> d          -4.348  -1.062   0.016  0.00  0.00     0.160 HD
ATOM     13  H5  <0> d          -3.181   2.230   0.027  0.00  0.00     0.172 HD
ENDBRANCH   3   7
BRANCH   1  14
ATOM     14  C1  <0> d           2.500   1.546  -0.013  0.00  0.00    -0.029 C 
ATOM     15  H1  <0> d           2.843   1.460  -1.044  0.00  0.00     0.036 H 
ATOM     16  H2  <0> d           3.080   2.314   0.500  0.00  0.00     0.036 H 
ATOM     17  H3  <0> d           2.634   0.591   0.495  0.00  0.00     0.036 H 
ENDBRANCH   1  14
TORSDOF 2
