REMARK  2 active torsions:
REMARK  status: ('A' for Active; 'I' for Inactive)
REMARK    1  A    between atoms: C1_1  and  C4_8 
REMARK    2  A    between atoms: C2_2  and  C3_6 
ROOT
ATOM      1  C1  <0> d          -2.681   1.377   0.022  0.00  0.00     0.200 A 
ATOM      2  C2  <0> d          -1.308   1.933   0.019  0.00  0.00     0.200 A 
ATOM      3  N1  <0> d          -1.525   3.230   0.033  0.00  0.00    -0.096 NA
ATOM      4  O1  <0> d          -2.716   3.438   0.034  0.00  0.00    -0.105 OA
ATOM      5  N2  <0> d          -3.427   2.461   0.032  0.00  0.00    -0.096 NA
ENDROOT
BRANCH   1   6
ATOM      6  C4  <0> d          -3.107  -0.042   0.017  0.00  0.00     0.234 C 
ATOM      7  O3  <0> d          -2.275  -0.926   0.008  0.00  0.00    -0.643 OA
ATOM      8  O5  <0> d          -4.418  -0.351   0.021  0.00  0.00    -0.643 OA
ENDBRANCH   1   6
BRANCH   2   9
ATOM      9  C3  <0> d          -0.014   1.210   0.009  0.00  0.00     0.234 C 
ATOM     10  O2  <0> d           0.002  -0.004   0.002  0.00  0.00    -0.643 OA
ATOM     11  O4  <0> d           1.143   1.899   0.001  0.00  0.00    -0.643 OA
ENDBRANCH   2   9
TORSDOF 2
