REMARK  2 active torsions:
REMARK  status: ('A' for Active; 'I' for Inactive)
REMARK    1  A    between atoms: C2_2  and  N1_3 
REMARK    2  A    between atoms: C4_5  and  C6_8 
ROOT
ATOM      1  N1  <0> d           1.061   1.887   0.002  0.00  0.00    -0.256 N 
ATOM      2  C3  <0> d          -0.013   1.076   0.008  0.00  0.00     0.021 A 
ATOM      3  C4  <0> d          -1.137   1.879   0.017  0.00  0.00     0.077 A 
ATOM      4  C5  <0> d          -0.691   3.221   0.026  0.00  0.00     0.040 A 
ATOM      5  N2  <0> d           0.614   3.213   0.013  0.00  0.00    -0.180 NA
ATOM      6  H4  <0> d           0.002  -0.004   0.002  0.00  0.00     0.116 H 
ATOM      7  H5  <0> d          -1.320   4.098   0.037  0.00  0.00     0.119 H 
ENDROOT
BRANCH   1   8
ATOM      8  C2  <0> d           2.394   1.476  -0.013  0.00  0.00    -0.006 C 
ATOM      9  C1  <0> d           3.360   2.373  -0.017  0.00  0.00    -0.105 C 
ATOM     10  H1  <0> d           4.411   2.049  -0.028  0.00  0.00     0.068 H 
ATOM     11  H2  <0> d           3.115   3.446  -0.009  0.00  0.00     0.068 H 
ATOM     12  H3  <0> d           2.638   0.404  -0.020  0.00  0.00     0.113 H 
ENDBRANCH   1   8
BRANCH   3  13
ATOM     13  C6  <0> d          -2.537   1.423   0.019  0.00  0.00     0.212 C 
ATOM     14  O1  <0> d          -2.789   0.234   0.013  0.00  0.00    -0.644 OA
ATOM     15  O2  <0> d          -3.539   2.324   0.029  0.00  0.00    -0.644 OA
ENDBRANCH   3  13
TORSDOF 2
