REMARK  1 active torsions:
REMARK  status: ('A' for Active; 'I' for Inactive)
REMARK    1  A    between atoms: C1_1  and  C2_2 
ROOT
ATOM      1  C2  <0> d           0.002  -0.004   0.002  0.00  0.00     0.053 A 
ATOM      2  C3  <0> d           0.006  -0.690  -1.203  0.00  0.00    -0.055 A 
ATOM      3  C4  <0> d           0.025  -2.076  -1.165  0.00  0.00    -0.041 A 
ATOM      4  C5  <0> d           0.039  -2.696   0.088  0.00  0.00     0.159 A 
ATOM      5  N1  <0> d           0.034  -1.952   1.189  0.00  0.00    -0.139 NA
ATOM      6  N2  <0> d           0.022  -0.670   1.143  0.00  0.00    -0.154 NA
ATOM      7  C6  <0> d           0.059  -4.125   0.185  0.00  0.00     0.121 C 
ATOM      8  N3  <0> d           0.074  -5.258   0.261  0.00  0.00    -0.190 NA
ATOM      9  H4  <0> d          -0.006  -0.160  -2.144  0.00  0.00     0.086 H 
ATOM     10  H5  <0> d           0.028  -2.659  -2.075  0.00  0.00     0.088 H 
ENDROOT
BRANCH   1  11
ATOM     11  C1  <0> d          -0.018   1.503   0.010  0.00  0.00    -0.034 C 
ATOM     12  H1  <0> d           1.004   1.880   0.003  0.00  0.00     0.035 H 
ATOM     13  H2  <0> d          -0.545   1.864  -0.873  0.00  0.00     0.035 H 
ATOM     14  H3  <0> d          -0.529   1.854   0.907  0.00  0.00     0.035 H 
ENDBRANCH   1  11
TORSDOF 1
