REMARK  2 active torsions:
REMARK  status: ('A' for Active; 'I' for Inactive)
REMARK    1  A    between atoms: C1_1  and  C2_2 
REMARK    2  A    between atoms: C2_2  and  C10_12 
ROOT
ATOM      1  C2  <0> d          -0.160   3.193  -1.194  0.00  0.00    -0.021 C 
ATOM      2  C3  <0> d           0.855   3.308  -0.016  0.00  0.00    -0.043 C 
ATOM      3  H1  <0> d           1.584   4.115  -0.089  0.00  0.00     0.041 H 
ATOM      4  C4  <0> d          -0.018   3.286   1.276  0.00  0.00    -0.060 C 
ATOM      5  C5  <0> d          -0.582   1.835   1.322  0.00  0.00    -0.058 C 
ATOM      6  C6  <0> d           0.037   1.130   0.076  0.00  0.00    -0.032 C 
ATOM      7  H2  <0> d           0.058   0.041   0.108  0.00  0.00     0.046 H 
ATOM      8  C7  <0> d           1.431   1.847  -0.001  0.00  0.00    -0.054 C 
ATOM      9  C8  <0> d          -0.674   1.751  -1.135  0.00  0.00    -0.077 C 
ATOM     10  C9  <0> d          -1.544   1.174  -1.926  0.00  0.00    -0.118 C 
ATOM     11  H6  <0> d           0.592   3.506   2.151  0.00  0.00     0.033 H 
ATOM     12  H7  <0> d          -0.837   4.001   1.194  0.00  0.00     0.033 H 
ATOM     13  H8  <0> d          -1.670   1.837   1.255  0.00  0.00     0.034 H 
ATOM     14  H9  <0> d          -0.258   1.341   2.238  0.00  0.00     0.034 H 
ATOM     15  H10 <0> d           2.040   1.656   0.882  0.00  0.00     0.034 H 
ATOM     16  H11 <0> d           1.965   1.606  -0.920  0.00  0.00     0.034 H 
ATOM     17  H12 <0> d          -1.832   0.147  -1.756  0.00  0.00     0.067 H 
ATOM     18  H13 <0> d          -1.974   1.725  -2.750  0.00  0.00     0.067 H 
ENDROOT
BRANCH   1  19
ATOM     19  C1  <0> d          -1.308   4.188  -1.007  0.00  0.00    -0.065 C 
ATOM     20  H3  <0> d          -0.900   5.186  -0.843  0.00  0.00     0.028 H 
ATOM     21  H4  <0> d          -1.933   4.193  -1.900  0.00  0.00     0.028 H 
ATOM     22  H5  <0> d          -1.906   3.894  -0.145  0.00  0.00     0.028 H 
ENDBRANCH   1  19
BRANCH   1  23
ATOM     23  C10 <0> d           0.544   3.439  -2.530  0.00  0.00    -0.065 C 
ATOM     24  H14 <0> d           1.332   2.699  -2.667  0.00  0.00     0.028 H 
ATOM     25  H15 <0> d          -0.178   3.356  -3.342  0.00  0.00     0.028 H 
ATOM     26  H16 <0> d           0.979   4.439  -2.533  0.00  0.00     0.028 H 
ENDBRANCH   1  23
TORSDOF 2
