REMARK  0 active torsions:
REMARK  status: ('A' for Active; 'I' for Inactive)
ROOT
ATOM      1  C1  <0> d          -0.017   1.411   0.010  0.00  0.00    -0.002 A 
ATOM      2  C2  <0> d           1.153   2.084   0.002  0.00  0.00    -0.013 A 
ATOM      3  N1  <0> d           2.333   1.392  -0.013  0.00  0.00    -0.319 N 
ATOM      4  H1  <0> d           3.174   1.875  -0.018  0.00  0.00     0.170 HD
ATOM      5  C3  <0> d           2.338   0.046  -0.020  0.00  0.00     0.326 A 
ATOM      6  O1  <0> d           3.398  -0.549  -0.033  0.00  0.00    -0.247 OA
ATOM      7  N2  <0> d           1.186  -0.650  -0.012  0.00  0.00    -0.276 N 
ATOM      8  H2  <0> d           1.207  -1.619  -0.016  0.00  0.00     0.173 HD
ATOM      9  C4  <0> d           0.002  -0.004   0.002  0.00  0.00     0.250 A 
ATOM     10  O2  <0> d          -1.041  -0.633   0.009  0.00  0.00    -0.268 OA
ATOM     11  H3  <0> d          -0.956   1.946   0.026  0.00  0.00     0.094 H 
ATOM     12  H4  <0> d           1.158   3.164   0.008  0.00  0.00     0.111 H 
ENDROOT
TORSDOF 0
