REMARK  3 active torsions:
REMARK  status: ('A' for Active; 'I' for Inactive)
REMARK    1  A    between atoms: C2_2  and  O4_12 
REMARK    2  A    between atoms: C3_4  and  O3_11 
REMARK    3  A    between atoms: C5_8  and  O2_10 
ROOT
ATOM      1  C1  <0> d           2.541   3.716   0.080  0.00  0.00     0.007 C 
ATOM      2  C2  <0> d           1.146   3.087   0.011  0.00  0.00     0.066 C 
ATOM      3  H1  <0> d           0.565   3.393   0.881  0.00  0.00     0.087 H 
ATOM      4  C3  <0> d           1.286   1.562  -0.002  0.00  0.00     0.081 C 
ATOM      5  H2  <0> d           1.824   1.253  -0.898  0.00  0.00     0.090 H 
ATOM      6  C4  <0> d           2.064   1.117   1.240  0.00  0.00     0.049 C 
ATOM      7  O1  <0> d           3.338   1.764   1.259  0.00  0.00    -0.359 OA
ATOM      8  C5  <0> d           3.269   3.190   1.319  0.00  0.00     0.131 C 
ATOM      9  H3  <0> d           4.278   3.601   1.350  0.00  0.00     0.128 H 
ATOM     10  H4  <0> d           3.105   3.451  -0.815  0.00  0.00     0.044 H 
ATOM     11  H5  <0> d           2.449   4.801   0.145  0.00  0.00     0.044 H 
ATOM     12  H6  <0> d           1.506   1.389   2.135  0.00  0.00     0.078 H 
ATOM     13  H7  <0> d           2.204   0.036   1.213  0.00  0.00     0.078 H 
ENDROOT
BRANCH   2  14
ATOM     14  O4  <0> d           0.484   3.516  -1.181  0.00  0.00    -0.393 OA
ATOM     15  H10 <0> d           0.361   4.474  -1.239  0.00  0.00     0.210 HD
ENDBRANCH   2  14
BRANCH   4  16
ATOM     16  O3  <0> d          -0.011   0.963   0.007  0.00  0.00    -0.391 OA
ATOM     17  H9  <0> d           0.002  -0.004   0.002  0.00  0.00     0.210 HD
ENDBRANCH   4  16
BRANCH   8  18
ATOM     18  O2  <0> d           2.558   3.584   2.494  0.00  0.00    -0.371 OA
ATOM     19  H8  <0> d           2.963   3.284   3.318  0.00  0.00     0.212 HD
ENDBRANCH   8  18
TORSDOF 3
