REMARK  4 active torsions:
REMARK  status: ('A' for Active; 'I' for Inactive)
REMARK    1  A    between atoms: C1_1  and  C2_2 
REMARK    2  A    between atoms: C6_9  and  C7_10 
REMARK    3  A    between atoms: C6_9  and  C8_11 
REMARK    4  A    between atoms: C10_13  and  O1_15 
ROOT
ATOM      1  C2  <0> d           0.772  -2.199  -1.019  0.00  0.00    -0.029 C 
ATOM      2  H1  <0> d           1.293  -2.355  -0.075  0.00  0.00     0.043 H 
ATOM      3  C3  <0> d           0.564  -0.693  -1.256  0.00  0.00    -0.041 C 
ATOM      4  H2  <0> d           1.404  -0.187  -1.732  0.00  0.00     0.042 H 
ATOM      5  C4  <0> d          -0.824  -0.421  -1.881  0.00  0.00    -0.057 C 
ATOM      6  C5  <0> d          -1.366  -0.555  -0.443  0.00  0.00    -0.044 C 
ATOM      7  H3  <0> d          -2.225   0.073  -0.204  0.00  0.00     0.041 H 
ATOM      8  C6  <0> d           0.002  -0.004   0.002  0.00  0.00    -0.040 C 
ATOM      9  C9  <0> d          -1.523  -2.035  -0.053  0.00  0.00    -0.037 C 
ATOM     10  C10 <0> d          -0.609  -2.869  -0.966  0.00  0.00     0.039 C 
ATOM     11  H4  <0> d          -1.033  -2.913  -1.969  0.00  0.00     0.083 H 
ATOM     12  H8  <0> d          -1.166  -1.206  -2.556  0.00  0.00     0.034 H 
ATOM     13  H9  <0> d          -0.932   0.579  -2.301  0.00  0.00     0.034 H 
ATOM     14  H16 <0> d          -1.230  -2.175   0.988  0.00  0.00     0.037 H 
ATOM     15  H17 <0> d          -2.560  -2.343  -0.188  0.00  0.00     0.037 H 
ENDROOT
BRANCH   8  16
ATOM     16  C7  <0> d           0.096   1.523  -0.035  0.00  0.00    -0.069 C 
ATOM     17  H10 <0> d           1.143   1.821  -0.088  0.00  0.00     0.028 H 
ATOM     18  H11 <0> d          -0.434   1.898  -0.911  0.00  0.00     0.028 H 
ATOM     19  H12 <0> d          -0.355   1.936   0.867  0.00  0.00     0.028 H 
ENDBRANCH   8  16
BRANCH   8  20
ATOM     20  C8  <0> d           0.512  -0.602   1.315  0.00  0.00    -0.069 C 
ATOM     21  H13 <0> d          -0.079  -0.214   2.144  0.00  0.00     0.028 H 
ATOM     22  H14 <0> d           0.420  -1.688   1.279  0.00  0.00     0.028 H 
ATOM     23  H15 <0> d           1.558  -0.331   1.455  0.00  0.00     0.028 H 
ENDBRANCH   8  20
BRANCH   1  24
ATOM     24  C1  <0> d           1.591  -2.795  -2.167  0.00  0.00    -0.070 C 
ATOM     25  H5  <0> d           2.561  -2.300  -2.216  0.00  0.00     0.028 H 
ATOM     26  H6  <0> d           1.735  -3.861  -1.995  0.00  0.00     0.028 H 
ATOM     27  H7  <0> d           1.059  -2.647  -3.107  0.00  0.00     0.028 H 
ENDBRANCH   1  24
BRANCH  10  28
ATOM     28  O1  <0> d          -0.481  -4.191  -0.440  0.00  0.00    -0.395 OA
ATOM     29  H18 <0> d          -1.317  -4.673  -0.379  0.00  0.00     0.210 HD
ENDBRANCH  10  28
TORSDOF 4
