REMARK  0 active torsions:
REMARK  status: ('A' for Active; 'I' for Inactive)
ROOT
ATOM      1  C1  <0> d          -1.220   1.749   0.017  0.00  0.00    -0.044 A 
ATOM      2  C2  <0> d          -0.013   1.076   0.008  0.00  0.00    -0.058 A 
ATOM      3  C3  <0> d           1.175   1.781   0.000  0.00  0.00     0.054 A 
ATOM      4  C4  <0> d           1.155   3.178   0.008  0.00  0.00     0.069 A 
ATOM      5  C5  <0> d          -0.068   3.852   0.023  0.00  0.00    -0.024 A 
ATOM      6  C6  <0> d          -1.248   3.135   0.031  0.00  0.00     0.117 A 
ATOM      7  F1  <0> d          -2.433   3.785   0.045  0.00  0.00    -0.206 F 
ATOM      8  C7  <0> d           2.382   3.915   0.001  0.00  0.00     0.101 C 
ATOM      9  N1  <0> d           3.356   4.500  -0.005  0.00  0.00    -0.191 NA
ATOM     10 Cl1  <0> d           2.690   0.933  -0.019  0.00  0.00    -0.083 Cl
ATOM     11  H1  <0> d          -2.146   1.193   0.019  0.00  0.00     0.088 H 
ATOM     12  H2  <0> d           0.002  -0.004   0.002  0.00  0.00     0.086 H 
ATOM     13  H3  <0> d          -0.091   4.932   0.029  0.00  0.00     0.090 H 
ENDROOT
TORSDOF 0
