REMARK  1 active torsions:
REMARK  status: ('A' for Active; 'I' for Inactive)
REMARK    1  A    between atoms: C3_3  and  C5_6 
ROOT
ATOM      1  C1  <0> d           2.091   0.758  -0.014  0.00  0.00    -0.059 A 
ATOM      2  C2  <0> d           1.303  -0.409  -0.013  0.00  0.00    -0.046 A 
ATOM      3  C3  <0> d           0.002  -0.004   0.002  0.00  0.00     0.108 A 
ATOM      4  O1  <0> d          -0.016   1.343   0.009  0.00  0.00    -0.320 OA
ATOM      5  C4  <0> d           1.245   1.807  -0.000  0.00  0.00     0.019 A 
ATOM      6  H1  <0> d           3.170   0.804  -0.024  0.00  0.00     0.086 H 
ATOM      7  H2  <0> d           1.661  -1.428  -0.022  0.00  0.00     0.088 H 
ATOM      8  H3  <0> d           1.533   2.848   0.002  0.00  0.00     0.123 H 
ENDROOT
BRANCH   3   9
ATOM      9  C5  <0> d          -1.177  -0.884   0.008  0.00  0.00     0.108 A 
ATOM     10  O2  <0> d          -1.158  -2.231   0.000  0.00  0.00    -0.320 OA
ATOM     11  C8  <0> d          -2.420  -2.695   0.010  0.00  0.00     0.019 A 
ATOM     12  C7  <0> d          -3.266  -1.646   0.024  0.00  0.00    -0.059 A 
ATOM     13  H6  <0> d          -2.707  -3.736   0.008  0.00  0.00     0.123 H 
ATOM     14  C6  <0> d          -2.478  -0.479   0.028  0.00  0.00    -0.046 A 
ATOM     15  H5  <0> d          -4.345  -1.692   0.034  0.00  0.00     0.086 H 
ATOM     16  H4  <0> d          -2.835   0.540   0.041  0.00  0.00     0.088 H 
ENDBRANCH   3   9
TORSDOF 1
