REMARK  2 active torsions:
REMARK  status: ('A' for Active; 'I' for Inactive)
REMARK    1  A    between atoms: C1_1  and  N1_2 
REMARK       I    between atoms: N1_2  and  C2_3 
REMARK    2  A    between atoms: C2_3  and  C3_5 
ROOT
ATOM      1  C3  <0> d          -2.447   0.874   0.018  0.00  0.00     0.072 A 
ATOM      2  C4  <0> d          -3.748   1.351   0.033  0.00  0.00    -0.060 A 
ATOM      3  C5  <0> d          -4.756   0.419   0.028  0.00  0.00    -0.075 A 
ATOM      4  C6  <0> d          -4.438  -0.902   0.019  0.00  0.00    -0.044 A 
ATOM      5  S1  <0> d          -2.704  -0.892   0.011  0.00  0.00    -0.097 SA
ATOM      6  H5  <0> d          -3.959   2.410   0.045  0.00  0.00     0.085 H 
ATOM      7  H6  <0> d          -5.789   0.732   0.035  0.00  0.00     0.084 H 
ATOM      8  H7  <0> d          -5.104  -1.752   0.018  0.00  0.00     0.095 H 
ENDROOT
BRANCH   1   9
ATOM      9  C2  <0> d          -1.187   1.624   0.017  0.00  0.00     0.258 C 
ATOM     10  N1  <0> d          -0.011   0.966   0.007  0.00  0.00    -0.361 N 
ATOM     11  H4  <0> d           0.002  -0.004   0.002  0.00  0.00     0.162 HD
ATOM     12  O1  <0> d          -1.204   2.841   0.023  0.00  0.00    -0.267 OA
BRANCH  10  13
ATOM     13  C1  <0> d           1.248   1.716  -0.001  0.00  0.00    -0.018 C 
ATOM     14  H1  <0> d           2.086   1.019  -0.012  0.00  0.00     0.056 H 
ATOM     15  H2  <0> d           1.288   2.348  -0.888  0.00  0.00     0.056 H 
ATOM     16  H3  <0> d           1.305   2.338   0.892  0.00  0.00     0.056 H 
ENDBRANCH  10  13
ENDBRANCH   1   9
TORSDOF 2
