REMARK  2 active torsions:
REMARK  status: ('A' for Active; 'I' for Inactive)
REMARK    1  A    between atoms: C2_2  and  N3_10 
REMARK    2  A    between atoms: C4_5  and  C5_7 
ROOT
ATOM      1  C1  <0> d          -2.438   0.954   0.019  0.00  0.00     0.031 A 
ATOM      2  C2  <0> d          -1.231   1.648   0.017  0.00  0.00     0.061 A 
ATOM      3  C3  <0> d          -1.271   3.040   0.030  0.00  0.00     0.031 A 
ATOM      4  N1  <0> d          -2.445   3.648   0.033  0.00  0.00    -0.243 NA
ATOM      5  C4  <0> d          -3.566   2.954   0.035  0.00  0.00     0.129 A 
ATOM      6  N2  <0> d          -3.571   1.637   0.028  0.00  0.00    -0.243 NA
ATOM      7  H1  <0> d          -2.449  -0.126   0.013  0.00  0.00     0.118 H 
ATOM      8  H2  <0> d          -0.356   3.615   0.034  0.00  0.00     0.118 H 
ENDROOT
BRANCH   5   9
ATOM      9  C5  <0> d          -4.881   3.690   0.046  0.00  0.00     0.005 A 
ATOM     10  C7  <0> d          -5.161   4.621   1.227  0.00  0.00    -0.054 A 
ATOM     11  C6  <0> d          -4.844   5.207  -0.150  0.00  0.00    -0.054 A 
ATOM     12  H6  <0> d          -6.190   4.692   1.580  0.00  0.00     0.034 H 
ATOM     13  H7  <0> d          -4.393   4.701   1.997  0.00  0.00     0.034 H 
ATOM     14  H4  <0> d          -3.868   5.673  -0.286  0.00  0.00     0.034 H 
ATOM     15  H5  <0> d          -5.664   5.664  -0.703  0.00  0.00     0.034 H 
ATOM     16  H3  <0> d          -5.726   3.148  -0.379  0.00  0.00     0.052 H 
ENDBRANCH   5   9
BRANCH   2  17
ATOM     17  N3  <0> d          -0.011   0.966   0.007  0.00  0.00    -0.397 N 
ATOM     18  H8  <0> d           0.002  -0.004   0.002  0.00  0.00     0.156 HD
ATOM     19  H9  <0> d           0.822   1.462   0.002  0.00  0.00     0.156 HD
ENDBRANCH   2  17
TORSDOF 2
