REMARK  2 active torsions:
REMARK  status: ('A' for Active; 'I' for Inactive)
REMARK    1  A    between atoms: C1_1  and  C2_2 
REMARK    2  A    between atoms: C5_6  and  N3_8 
ROOT
ATOM      1  C2  <0> d          -1.230   2.130   0.019  0.00  0.00     0.072 A 
ATOM      2  C3  <0> d          -0.017   1.428   0.010  0.00  0.00     0.087 A 
ATOM      3  C4  <0> d           1.175   2.163   0.003  0.00  0.00     0.043 A 
ATOM      4  N1  <0> d           1.114   3.482   0.010  0.00  0.00    -0.074 NA
ATOM      5  C5  <0> d          -0.054   4.109   0.025  0.00  0.00     0.720 A 
ATOM      6  N2  <0> d          -1.205   3.450   0.032  0.00  0.00    -0.067 NA
ATOM      7  C6  <0> d           0.002  -0.004   0.002  0.00  0.00     0.103 C 
ATOM      8  N4  <0> d           0.018  -1.140  -0.004  0.00  0.00    -0.191 NA
ATOM      9  H4  <0> d           2.130   1.658  -0.010  0.00  0.00     0.118 H 
ENDROOT
BRANCH   1  10
ATOM     10  C1  <0> d          -2.543   1.391   0.021  0.00  0.00    -0.033 C 
ATOM     11  H1  <0> d          -2.353   0.307   0.009  0.00  0.00     0.035 H 
ATOM     12  H2  <0> d          -3.122   1.671  -0.871  0.00  0.00     0.035 H 
ATOM     13  H3  <0> d          -3.111   1.654   0.925  0.00  0.00     0.035 H 
ENDBRANCH   1  10
BRANCH   5  14
ATOM     14  N3  <0> d          -0.072   5.490   0.032  0.00  0.00    -0.231 N 
ATOM     15  H5  <0> d          -1.032   6.027   0.044  0.00  0.00     0.174 HD
ATOM     16  H6  <0> d           0.873   6.053   0.026  0.00  0.00     0.174 HD
ENDBRANCH   5  14
TORSDOF 2
