REMARK  1 active torsions:
REMARK  status: ('A' for Active; 'I' for Inactive)
REMARK    1  A    between atoms: C5_5  and  N1_7 
ROOT
ATOM      1  C1  <0> d          -0.017   1.375   0.010  0.00  0.00    -0.080 A 
ATOM      2  C2  <0> d           1.171   2.094   0.002  0.00  0.00    -0.074 A 
ATOM      3  C3  <0> d           2.375   1.435  -0.013  0.00  0.00    -0.015 A 
ATOM      4  C4  <0> d           2.415   0.036  -0.021  0.00  0.00     0.074 A 
ATOM      5  C5  <0> d           1.213  -0.687  -0.013  0.00  0.00     0.042 A 
ATOM      6  C6  <0> d           0.002  -0.004   0.002  0.00  0.00    -0.057 A 
ATOM      7  C7  <0> d           3.827  -0.371  -0.036  0.00  0.00     0.296 A 
ATOM      8  O1  <0> d           4.221  -1.520  -0.047  0.00  0.00    -0.259 OA
ATOM      9  O2  <0> d           4.619   0.715  -0.038  0.00  0.00    -0.313 OA
ATOM     10  C8  <0> d           3.811   1.894  -0.024  0.00  0.00     0.054 A 
ATOM     11  H1  <0> d          -0.961   1.899   0.026  0.00  0.00     0.083 H 
ATOM     12  H2  <0> d           1.147   3.173   0.008  0.00  0.00     0.084 H 
ATOM     13  H3  <0> d          -0.927  -0.555   0.008  0.00  0.00     0.086 H 
ATOM     14  H6  <0> d           4.005   2.490  -0.916  0.00  0.00     0.082 H 
ATOM     15  H7  <0> d           4.022   2.481   0.870  0.00  0.00     0.082 H 
ENDROOT
BRANCH   5  16
ATOM     16  N1  <0> d           1.232  -2.075  -0.021  0.00  0.00    -0.398 N 
ATOM     17  H4  <0> d           2.078  -2.549  -0.032  0.00  0.00     0.156 HD
ATOM     18  H5  <0> d           0.399  -2.572  -0.015  0.00  0.00     0.156 HD
ENDBRANCH   5  16
TORSDOF 1
