REMARK  0 active torsions:
REMARK  status: ('A' for Active; 'I' for Inactive)
ROOT
ATOM      1  C1  <0> d          -0.017   1.397   0.010  0.00  0.00    -0.047 A 
ATOM      2  C2  <0> d           1.141   2.092   0.002  0.00  0.00    -0.042 A 
ATOM      3  S1  <0> d           2.374   0.802  -0.016  0.00  0.00    -0.094 SA
ATOM      4  C3  <0> d           1.279  -0.592  -0.013  0.00  0.00     0.101 A 
ATOM      5  C4  <0> d           0.002  -0.004   0.002  0.00  0.00     0.081 A 
ATOM      6  N1  <0> d          -1.060  -0.875   0.007  0.00  0.00    -0.243 NA
ATOM      7  C5  <0> d          -0.894  -2.158  -0.002  0.00  0.00     0.067 A 
ATOM      8  N2  <0> d           0.329  -2.751  -0.017  0.00  0.00    -0.317 N 
ATOM      9  C6  <0> d           1.441  -1.978  -0.023  0.00  0.00     0.265 A 
ATOM     10  O1  <0> d           2.553  -2.479  -0.036  0.00  0.00    -0.267 OA
ATOM     11  H1  <0> d          -0.960   1.923   0.026  0.00  0.00     0.087 H 
ATOM     12  H2  <0> d           1.284   3.163   0.006  0.00  0.00     0.095 H 
ATOM     13  H3  <0> d          -1.771  -2.789   0.003  0.00  0.00     0.143 H 
ATOM     14  H4  <0> d           0.404  -3.718  -0.023  0.00  0.00     0.170 HD
ENDROOT
TORSDOF 0
