REMARK  2 active torsions:
REMARK  status: ('A' for Active; 'I' for Inactive)
REMARK    1  A    between atoms: C1_1  and  C2_2 
REMARK    2  A    between atoms: C2_2  and  C4_4 
ROOT
ATOM      1  C4  <0> d          -0.000  -0.733  -1.277  0.00  0.00     0.038 A 
ATOM      2  C5  <0> d           0.999  -0.705  -2.197  0.00  0.00    -0.045 A 
ATOM      3  C6  <0> d           0.583  -1.565  -3.303  0.00  0.00    -0.007 A 
ATOM      4  C7  <0> d           1.171  -1.931  -4.518  0.00  0.00    -0.071 A 
ATOM      5  C8  <0> d           0.510  -2.776  -5.363  0.00  0.00    -0.082 A 
ATOM      6  C9  <0> d          -0.741  -3.276  -5.026  0.00  0.00    -0.081 A 
ATOM      7  C10 <0> d          -1.339  -2.928  -3.835  0.00  0.00    -0.056 A 
ATOM      8  C11 <0> d          -0.686  -2.068  -2.957  0.00  0.00     0.043 A 
ATOM      9  N1  <0> d          -1.012  -1.554  -1.722  0.00  0.00    -0.355 N 
ATOM     10  H1  <0> d          -1.833  -1.739  -1.240  0.00  0.00     0.166 HD
ATOM     11  H7  <0> d           1.924  -0.153  -2.125  0.00  0.00     0.088 H 
ATOM     12  H8  <0> d           2.143  -1.546  -4.787  0.00  0.00     0.084 H 
ATOM     13  H9  <0> d           0.964  -3.059  -6.302  0.00  0.00     0.083 H 
ATOM     14  H10 <0> d          -1.251  -3.943  -5.705  0.00  0.00     0.083 H 
ATOM     15  H11 <0> d          -2.313  -3.321  -3.583  0.00  0.00     0.086 H 
ENDROOT
BRANCH   1  16
ATOM     16  C2  <0> d           0.002  -0.004   0.002  0.00  0.00    -0.045 C 
ATOM     17  C3  <0> d           0.022  -0.675   1.149  0.00  0.00    -0.114 C 
ATOM     18  H5  <0> d           0.024  -0.140   2.088  0.00  0.00     0.067 H 
ATOM     19  H6  <0> d           0.037  -1.755   1.143  0.00  0.00     0.067 H 
BRANCH  16  20
ATOM     20  C1  <0> d          -0.018   1.503   0.010  0.00  0.00    -0.050 C 
ATOM     21  H2  <0> d           1.004   1.880   0.003  0.00  0.00     0.033 H 
ATOM     22  H3  <0> d          -0.545   1.864  -0.873  0.00  0.00     0.033 H 
ATOM     23  H4  <0> d          -0.529   1.854   0.907  0.00  0.00     0.033 H 
ENDBRANCH  16  20
ENDBRANCH   1  16
TORSDOF 2
