REMARK  2 active torsions:
REMARK  status: ('A' for Active; 'I' for Inactive)
REMARK    1  A    between atoms: C1_1  and  C2_2 
REMARK    2  A    between atoms: C4_5  and  C5_8 
ROOT
ATOM      1  C2  <0> d           1.992   5.118   0.010  0.00  0.00     0.022 A 
ATOM      2  C3  <0> d           0.636   5.133   0.024  0.00  0.00     0.000 A 
ATOM      3  N1  <0> d           0.203   3.875   0.021  0.00  0.00    -0.345 N 
ATOM      4  C4  <0> d           1.239   3.063   0.007  0.00  0.00     0.184 A 
ATOM      5  N2  <0> d           2.377   3.820   0.005  0.00  0.00    -0.339 N 
ATOM      6  H1  <0> d           3.447   3.564   0.001  0.00  0.00     0.167 HD
ATOM      7  H5  <0> d           0.013   6.016   0.035  0.00  0.00     0.114 H 
ATOM      8  H6  <0> d          -0.877   3.665   0.031  0.00  0.00     0.167 HD
ENDROOT
BRANCH   1   9
ATOM      9  C1  <0> d           2.900   6.320   0.008  0.00  0.00    -0.036 C 
ATOM     10  H2  <0> d           2.293   7.238   0.013  0.00  0.00     0.035 H 
ATOM     11  H3  <0> d           3.530   6.303  -0.894  0.00  0.00     0.035 H 
ATOM     12  H4  <0> d           3.540   6.299   0.902  0.00  0.00     0.035 H 
ENDBRANCH   1   9
BRANCH   4  13
ATOM     13  C5  <0> d           1.182   1.591  -0.001  0.00  0.00     0.245 C 
ATOM     14  O1  <0> d           2.210   0.943  -0.014  0.00  0.00    -0.642 OA
ATOM     15  O2  <0> d          -0.011   0.963   0.007  0.00  0.00    -0.642 OA
ENDBRANCH   4  13
TORSDOF 2
