REMARK  3 active torsions:
REMARK  status: ('A' for Active; 'I' for Inactive)
REMARK    1  A    between atoms: C1_1  and  C2_2 
REMARK    2  A    between atoms: C7_7  and  O1_8 
REMARK    3  A    between atoms: O1_8  and  C8_9 
ROOT
ATOM      1  C2  <0> d           1.177   1.781   0.000  0.00  0.00    -0.029 A 
ATOM      2  C3  <0> d          -0.013   1.076   0.008  0.00  0.00    -0.073 A 
ATOM      3  C4  <0> d          -1.218   1.747   0.017  0.00  0.00    -0.062 A 
ATOM      4  C5  <0> d          -1.238   3.143   0.030  0.00  0.00     0.047 A 
ATOM      5  C6  <0> d          -0.037   3.854   0.023  0.00  0.00    -0.030 A 
ATOM      6  C7  <0> d           1.167   3.169   0.007  0.00  0.00     0.075 A 
ATOM      7  C9  <0> d          -2.487   3.844   0.046  0.00  0.00     0.099 C 
ATOM      8  N1  <0> d          -3.478   4.399   0.058  0.00  0.00    -0.191 NA
ATOM      9  H4  <0> d           0.002  -0.004   0.002  0.00  0.00     0.084 H 
ATOM     10  H5  <0> d          -2.145   1.193   0.019  0.00  0.00     0.085 H 
ATOM     11  H6  <0> d          -0.046   4.934   0.028  0.00  0.00     0.090 H 
ENDROOT
BRANCH   6  12
ATOM     12  O1  <0> d           2.339   3.857  -0.000  0.00  0.00    -0.355 OA
BRANCH  12  13
ATOM     13  C8  <0> d           2.254   5.284   0.008  0.00  0.00     0.010 C 
ATOM     14  H7  <0> d           3.258   5.707   0.001  0.00  0.00     0.066 H 
ATOM     15  H8  <0> d           1.711   5.620  -0.875  0.00  0.00     0.066 H 
ATOM     16  H9  <0> d           1.728   5.611   0.905  0.00  0.00     0.066 H 
ENDBRANCH  12  13
ENDBRANCH   6  12
BRANCH   1  17
ATOM     17  C1  <0> d           2.489   1.040  -0.016  0.00  0.00    -0.049 C 
ATOM     18  H1  <0> d           2.796   0.867  -1.048  0.00  0.00     0.033 H 
ATOM     19  H2  <0> d           3.248   1.634   0.494  0.00  0.00     0.033 H 
ATOM     20  H3  <0> d           2.373   0.084   0.494  0.00  0.00     0.033 H 
ENDBRANCH   1  17
TORSDOF 3
