REMARK  5 active torsions:
REMARK  status: ('A' for Active; 'I' for Inactive)
REMARK    1  A    between atoms: C1_1  and  C2_2 
REMARK    2  A    between atoms: C2_2  and  C3_3 
REMARK    3  A    between atoms: C2_2  and  C4_4 
REMARK    4  A    between atoms: C4_4  and  C5_5 
REMARK    5  A    between atoms: C6_8  and  N3_10 
ROOT
ATOM      1  C4  <0> d           1.350  -2.181  -0.022  0.00  0.00    -0.014 C 
ATOM      2  H8  <0> d           0.522  -2.680   0.502  0.00  0.00     0.043 H 
ATOM      3  H9  <0> d           2.298  -2.413   0.486  0.00  0.00     0.043 H 
ENDROOT
BRANCH   1   4
ATOM      4  C2  <0> d           1.413  -2.678  -1.468  0.00  0.00    -0.056 C 
ATOM      5  H4  <0> d           2.183  -2.115  -2.016  0.00  0.00     0.039 H 
BRANCH   4   6
ATOM      6  C1  <0> d           1.764  -4.167  -1.481  0.00  0.00    -0.073 C 
ATOM      7  H1  <0> d           2.741  -4.318  -0.999  0.00  0.00     0.028 H 
ATOM      8  H2  <0> d           1.809  -4.524  -2.520  0.00  0.00     0.028 H 
ATOM      9  H3  <0> d           0.994  -4.730  -0.932  0.00  0.00     0.028 H 
ENDBRANCH   4   6
BRANCH   4  10
ATOM     10  C3  <0> d           0.053  -2.469  -2.138  0.00  0.00    -0.073 C 
ATOM     11  H5  <0> d          -0.199  -1.398  -2.129  0.00  0.00     0.028 H 
ATOM     12  H6  <0> d          -0.716  -3.032  -1.590  0.00  0.00     0.028 H 
ATOM     13  H7  <0> d           0.099  -2.826  -3.178  0.00  0.00     0.028 H 
ENDBRANCH   4  10
ENDBRANCH   1   4
BRANCH   1  14
ATOM     14  C5  <0> d           1.126  -0.691  -0.012  0.00  0.00     0.101 A 
ATOM     15  S1  <0> d           2.312   0.651  -0.017  0.00  0.00    -0.034 SA
ATOM     16  C6  <0> d           1.103   1.971   0.002  0.00  0.00     0.187 A 
ATOM     17  N2  <0> d          -0.015   1.257   0.009  0.00  0.00    -0.124 NA
ATOM     18  N1  <0> d           0.002  -0.004   0.002  0.00  0.00    -0.145 NA
BRANCH  16  19
ATOM     19  N3  <0> d           1.283   3.347   0.007  0.00  0.00    -0.377 N 
ATOM     20  H10 <0> d           2.299   3.768  -0.000  0.00  0.00     0.158 HD
ATOM     21  H11 <0> d           0.410   4.016   0.018  0.00  0.00     0.158 HD
ENDBRANCH  16  19
ENDBRANCH   1  14
TORSDOF 5
