REMARK  0 active torsions:
REMARK  status: ('A' for Active; 'I' for Inactive)
ROOT
ATOM      1  C1  <0> d           0.002  -0.004   0.002  0.00  0.00     0.175 C 
ATOM      2  N1  <0> d           0.018  -1.140  -0.004  0.00  0.00    -0.188 NA
ATOM      3  C2  <0> d          -0.018   1.468   0.010  0.00  0.00     0.484 C 
ATOM      4  F1  <0> d           1.295   1.952   0.000  0.00  0.00    -0.157 F 
ATOM      5  F2  <0> d          -0.695   1.931  -1.123  0.00  0.00    -0.157 F 
ATOM      6  F3  <0> d          -0.673   1.919   1.161  0.00  0.00    -0.157 F 
ENDROOT
TORSDOF 0
