REMARK  5 active torsions:
REMARK  status: ('A' for Active; 'I' for Inactive)
REMARK    1  A    between atoms: C1_1  and  C2_2 
REMARK       I    between atoms: C2_2  and  N1_4 
REMARK    2  A    between atoms: N1_4  and  C3_5 
REMARK    3  A    between atoms: C3_5  and  C4_7 
REMARK    4  A    between atoms: C3_5  and  C7_10 
REMARK    5  A    between atoms: C4_7  and  C5_8 
ROOT
ATOM      1  C3  <0> d          -0.729   1.579   1.267  0.00  0.00     0.099 C 
ATOM      2  H1  <0> d          -1.776   1.277   1.232  0.00  0.00     0.090 H 
ENDROOT
BRANCH   1   3
ATOM      3  N1  <0> d          -0.645   3.040   1.336  0.00  0.00    -0.347 N 
ATOM      4  C2  <0> d          -1.574   3.737   2.019  0.00  0.00     0.214 C 
ATOM      5  O1  <0> d          -2.480   3.155   2.577  0.00  0.00    -0.274 OA
ATOM      6  H5  <0> d           0.080   3.506   0.889  0.00  0.00     0.163 HD
BRANCH   4   7
ATOM      7  C1  <0> d          -1.487   5.240   2.090  0.00  0.00    -0.003 C 
ATOM      8  H2  <0> d          -2.038   5.676   1.255  0.00  0.00     0.040 H 
ATOM      9  H3  <0> d          -1.919   5.585   3.029  0.00  0.00     0.040 H 
ATOM     10  H4  <0> d          -0.443   5.547   2.035  0.00  0.00     0.040 H 
ENDBRANCH   4   7
ENDBRANCH   1   3
BRANCH   1  11
ATOM     11  C4  <0> d          -0.013   1.086   0.008  0.00  0.00    -0.022 C 
ATOM     12  H6  <0> d           0.002  -0.004   0.002  0.00  0.00     0.042 H 
ATOM     13  H7  <0> d           1.010   1.463   0.000  0.00  0.00     0.042 H 
BRANCH  11  14
ATOM     14  C5  <0> d          -0.742   1.585  -1.213  0.00  0.00    -0.110 C 
ATOM     15  C6  <0> d          -0.098   2.269  -2.126  0.00  0.00    -0.125 C 
ATOM     16  H9  <0> d          -0.620   2.627  -3.001  0.00  0.00     0.066 H 
ATOM     17  H10 <0> d           0.955   2.475  -2.004  0.00  0.00     0.066 H 
ATOM     18  H8  <0> d          -1.795   1.379  -1.335  0.00  0.00     0.075 H 
ENDBRANCH  11  14
ENDBRANCH   1  11
BRANCH   1  19
ATOM     19  C7  <0> d          -0.074   0.981   2.485  0.00  0.00     0.197 C 
ATOM     20  O2  <0> d           0.413   1.700   3.324  0.00  0.00    -0.646 OA
ATOM     21  O3  <0> d          -0.032  -0.352   2.637  0.00  0.00    -0.646 OA
ENDBRANCH   1  19
TORSDOF 5
