REMARK  4 active torsions:
REMARK  status: ('A' for Active; 'I' for Inactive)
REMARK    1  A    between atoms: C1_1  and  C2_2 
REMARK    2  A    between atoms: C2_2  and  C3_3 
REMARK    3  A    between atoms: C8_8  and  C9_9 
REMARK    4  A    between atoms: C9_9  and  O1_10 
ROOT
ATOM      1  C3  <0> d           3.313   1.590  -1.470  0.00  0.00    -0.050 A 
ATOM      2  C4  <0> d           3.994   1.197  -2.608  0.00  0.00    -0.076 A 
ATOM      3  C5  <0> d           3.390   0.348  -3.516  0.00  0.00    -0.082 A 
ATOM      4  C6  <0> d           2.105  -0.108  -3.287  0.00  0.00    -0.082 A 
ATOM      5  C7  <0> d           1.426   0.281  -2.148  0.00  0.00    -0.074 A 
ATOM      6  C8  <0> d           2.028   1.134  -1.242  0.00  0.00    -0.029 A 
ATOM      7  H6  <0> d           4.998   1.553  -2.786  0.00  0.00     0.084 H 
ATOM      8  H7  <0> d           3.922   0.041  -4.404  0.00  0.00     0.083 H 
ATOM      9  H8  <0> d           1.633  -0.771  -3.997  0.00  0.00     0.083 H 
ATOM     10  H9  <0> d           0.424  -0.079  -1.967  0.00  0.00     0.084 H 
ENDROOT
BRANCH   1  11
ATOM     11  C2  <0> d           3.971   2.515  -0.480  0.00  0.00    -0.044 C 
ATOM     12  H4  <0> d           4.735   3.106  -0.986  0.00  0.00     0.039 H 
ATOM     13  H5  <0> d           3.223   3.181  -0.051  0.00  0.00     0.039 H 
BRANCH  11  14
ATOM     14  C1  <0> d           4.620   1.691   0.635  0.00  0.00    -0.073 C 
ATOM     15  H1  <0> d           5.369   1.025   0.206  0.00  0.00     0.028 H 
ATOM     16  H2  <0> d           5.096   2.360   1.351  0.00  0.00     0.028 H 
ATOM     17  H3  <0> d           3.856   1.101   1.141  0.00  0.00     0.028 H 
ENDBRANCH  11  14
ENDBRANCH   1  11
BRANCH   6  18
ATOM     18  C9  <0> d           1.286   1.562  -0.002  0.00  0.00     0.041 C 
ATOM     19  H10 <0> d           1.186   2.647   0.005  0.00  0.00     0.081 H 
ATOM     20  H11 <0> d           1.840   1.243   0.881  0.00  0.00     0.081 H 
BRANCH  18  21
ATOM     21  O1  <0> d          -0.011   0.963   0.007  0.00  0.00    -0.396 OA
ATOM     22  H12 <0> d           0.002  -0.004   0.002  0.00  0.00     0.209 HD
ENDBRANCH  18  21
ENDBRANCH   6  18
TORSDOF 4
