REMARK  3 active torsions:
REMARK  status: ('A' for Active; 'I' for Inactive)
REMARK    1  A    between atoms: C1_1  and  C2_2 
REMARK    2  A    between atoms: C2_2  and  C3_4 
REMARK    3  A    between atoms: C2_2  and  O1_9 
ROOT
ATOM      1  C3  <0> d          -1.433  -0.534   0.013  0.00  0.00     0.074 A 
ATOM      2  C4  <0> d          -1.937  -1.236  -1.250  0.00  0.00    -0.042 A 
ATOM      3  C5  <0> d          -1.626  -2.051   0.007  0.00  0.00    -0.042 A 
ATOM      4  C6  <0> d          -2.401   0.272   0.775  0.00  0.00     0.071 C 
ATOM      5  N1  <0> d          -3.148   0.893   1.364  0.00  0.00    -0.196 NA
ATOM      6  H5  <0> d          -2.985  -1.101  -1.516  0.00  0.00     0.035 H 
ATOM      7  H6  <0> d          -1.246  -1.320  -2.088  0.00  0.00     0.035 H 
ATOM      8  H7  <0> d          -0.731  -2.673  -0.005  0.00  0.00     0.035 H 
ATOM      9  H8  <0> d          -2.470  -2.454   0.567  0.00  0.00     0.035 H 
ENDROOT
BRANCH   1  10
ATOM     10  C2  <0> d           0.002  -0.004   0.002  0.00  0.00     0.052 C 
ATOM     11  H1  <0> d           0.512  -0.356  -0.895  0.00  0.00     0.085 H 
BRANCH  10  12
ATOM     12  C1  <0> d          -0.019   1.526   0.010  0.00  0.00    -0.051 C 
ATOM     13  H2  <0> d           1.004   1.903   0.003  0.00  0.00     0.030 H 
ATOM     14  H3  <0> d          -0.546   1.887  -0.873  0.00  0.00     0.030 H 
ATOM     15  H4  <0> d          -0.529   1.877   0.907  0.00  0.00     0.030 H 
ENDBRANCH  10  12
BRANCH  10  16
ATOM     16  O1  <0> d           0.693  -0.477   1.160  0.00  0.00    -0.394 OA
ATOM     17  H9  <0> d           1.611  -0.180   1.219  0.00  0.00     0.210 HD
ENDBRANCH  10  16
ENDBRANCH   1  10
TORSDOF 3
