REMARK  0 active torsions:
REMARK  status: ('A' for Active; 'I' for Inactive)
ROOT
ATOM      1  C1  <0> d          -0.013   1.076   0.008  0.00  0.00    -0.078 A 
ATOM      2  C2  <0> d          -1.207   1.729   0.017  0.00  0.00    -0.054 A 
ATOM      3  C3  <0> d          -1.235   3.134   0.031  0.00  0.00     0.069 A 
ATOM      4  C4  <0> d          -0.011   3.848   0.023  0.00  0.00     0.031 A 
ATOM      5  C5  <0> d          -0.040   5.254   0.031  0.00  0.00    -0.066 A 
ATOM      6  C6  <0> d          -1.258   5.873   0.044  0.00  0.00    -0.065 A 
ATOM      7  C7  <0> d          -2.425   5.112   0.051  0.00  0.00     0.003 A 
ATOM      8  N1  <0> d          -2.393   3.801   0.044  0.00  0.00    -0.260 NA
ATOM      9  C8  <0> d           1.205   3.141   0.008  0.00  0.00     0.129 A 
ATOM     10  C9  <0> d           1.190   1.777   0.000  0.00  0.00    -0.045 A 
ATOM     11  F1  <0> d           2.380   3.808   0.001  0.00  0.00    -0.205 F 
ATOM     12  H1  <0> d           0.002  -0.004   0.002  0.00  0.00     0.083 H 
ATOM     13  H2  <0> d          -2.131   1.169   0.019  0.00  0.00     0.087 H 
ATOM     14  H3  <0> d           0.874   5.829   0.026  0.00  0.00     0.085 H 
ATOM     15  H4  <0> d          -1.316   6.951   0.050  0.00  0.00     0.085 H 
ATOM     16  H5  <0> d          -3.381   5.615   0.062  0.00  0.00     0.114 H 
ATOM     17  H6  <0> d           2.124   1.234  -0.012  0.00  0.00     0.088 H 
ENDROOT
TORSDOF 0
