REMARK  3 active torsions:
REMARK  status: ('A' for Active; 'I' for Inactive)
REMARK    1  A    between atoms: C1_1  and  C2_2 
REMARK    2  A    between atoms: C5_5  and  O2_9 
REMARK    3  A    between atoms: C7_7  and  O1_8 
ROOT
ATOM      1  C2  <0> d           1.175   1.782   0.000  0.00  0.00    -0.029 A 
ATOM      2  C3  <0> d          -0.013   1.076   0.008  0.00  0.00    -0.072 A 
ATOM      3  C4  <0> d          -1.219   1.749   0.017  0.00  0.00    -0.050 A 
ATOM      4  C5  <0> d          -1.240   3.137   0.031  0.00  0.00     0.068 A 
ATOM      5  C6  <0> d          -0.050   3.847   0.023  0.00  0.00    -0.019 A 
ATOM      6  C7  <0> d           1.159   3.169   0.008  0.00  0.00     0.074 A 
ATOM      7  H4  <0> d           0.002  -0.004   0.002  0.00  0.00     0.084 H 
ATOM      8  H5  <0> d          -2.146   1.195   0.019  0.00  0.00     0.087 H 
ATOM      9  H6  <0> d          -0.065   4.927   0.028  0.00  0.00     0.092 H 
ENDROOT
BRANCH   1  10
ATOM     10  C1  <0> d           2.490   1.044  -0.016  0.00  0.00    -0.049 C 
ATOM     11  H1  <0> d           2.796   0.872  -1.048  0.00  0.00     0.033 H 
ATOM     12  H2  <0> d           3.247   1.640   0.494  0.00  0.00     0.033 H 
ATOM     13  H3  <0> d           2.376   0.088   0.494  0.00  0.00     0.033 H 
ENDBRANCH   1  10
BRANCH   6  14
ATOM     14  O1  <0> d           2.328   3.863   0.000  0.00  0.00    -0.360 OA
ATOM     15  H7  <0> d           2.658   4.068  -0.885  0.00  0.00     0.217 HD
ENDBRANCH   6  14
BRANCH   4  16
ATOM     16  O2  <0> d          -2.427   3.799   0.045  0.00  0.00    -0.361 OA
ATOM     17  H8  <0> d          -2.779   3.994  -0.834  0.00  0.00     0.217 HD
ENDBRANCH   4  16
TORSDOF 3
