REMARK  2 active torsions:
REMARK  status: ('A' for Active; 'I' for Inactive)
REMARK    1  A    between atoms: C2_2  and  C7_9 
REMARK    2  A    between atoms: C6_6  and  N1_7 
ROOT
ATOM      1  C1  <0> d          -0.044   4.127   0.025  0.00  0.00    -0.041 A 
ATOM      2  C2  <0> d          -1.244   3.416   0.032  0.00  0.00     0.045 A 
ATOM      3  C3  <0> d          -1.224   2.020   0.019  0.00  0.00    -0.029 A 
ATOM      4  C4  <0> d          -0.016   1.347   0.009  0.00  0.00     0.119 A 
ATOM      5  C5  <0> d           1.174   2.053   0.002  0.00  0.00    -0.021 A 
ATOM      6  C6  <0> d           1.163   3.443   0.009  0.00  0.00     0.029 A 
ATOM      7  F1  <0> d           0.002  -0.004   0.002  0.00  0.00    -0.206 F 
ATOM      8  H1  <0> d          -0.054   5.207   0.030  0.00  0.00     0.088 H 
ATOM      9  H2  <0> d          -2.151   1.466   0.020  0.00  0.00     0.089 H 
ATOM     10  H3  <0> d           2.115   1.523  -0.010  0.00  0.00     0.091 H 
ENDROOT
BRANCH   2  11
ATOM     11  C7  <0> d          -2.533   4.138   0.048  0.00  0.00     0.209 C 
ATOM     12  O1  <0> d          -2.549   5.352   0.055  0.00  0.00    -0.644 OA
ATOM     13  O2  <0> d          -3.691   3.449   0.055  0.00  0.00    -0.644 OA
ENDBRANCH   2  11
BRANCH   6  14
ATOM     14  N1  <0> d           2.367   4.151   0.002  0.00  0.00    -0.399 N 
ATOM     15  H4  <0> d           3.211   3.673  -0.008  0.00  0.00     0.156 HD
ATOM     16  H5  <0> d           2.359   5.121   0.007  0.00  0.00     0.156 HD
ENDBRANCH   6  14
TORSDOF 2
