REMARK  1 active torsions:
REMARK  status: ('A' for Active; 'I' for Inactive)
REMARK    1  A    between atoms: C2_2  and  C4_6 
ROOT
ATOM      1  C1  <0> d           2.340   3.901   0.001  0.00  0.00     0.026 A 
ATOM      2  C2  <0> d           1.239   3.055   0.007  0.00  0.00     0.100 A 
ATOM      3  S1  <0> d          -0.089   4.251   0.018  0.00  0.00    -0.074 SA
ATOM      4  C3  <0> d           0.894   5.682   0.023  0.00  0.00     0.040 A 
ATOM      5  N1  <0> d           2.115   5.190   0.009  0.00  0.00    -0.264 NA
ATOM      6  H1  <0> d           3.346   3.509  -0.010  0.00  0.00     0.117 H 
ATOM      7  H2  <0> d           0.583   6.716   0.030  0.00  0.00     0.126 H 
ENDROOT
BRANCH   2   8
ATOM      8  C4  <0> d           1.182   1.591  -0.001  0.00  0.00     0.218 C 
ATOM      9  O1  <0> d           2.211   0.943  -0.014  0.00  0.00    -0.643 OA
ATOM     10  O2  <0> d          -0.011   0.963   0.007  0.00  0.00    -0.643 OA
ENDBRANCH   2   8
TORSDOF 1
