REMARK  4 active torsions:
REMARK  status: ('A' for Active; 'I' for Inactive)
REMARK    1  A    between atoms: C1_1  and  O1_2 
REMARK    2  A    between atoms: O1_2  and  C2_3 
REMARK    3  A    between atoms: C4_7  and  C7_11 
REMARK    4  A    between atoms: C7_11  and  O3_12 
ROOT
ATOM      1  C2  <0> d           0.002  -0.004   0.002  0.00  0.00     0.133 A 
ATOM      2  C3  <0> d          -0.016   1.350   0.009  0.00  0.00     0.013 A 
ATOM      3  N1  <0> d           1.144   2.058   0.002  0.00  0.00    -0.364 N 
ATOM      4  H1  <0> d           1.108   3.027   0.007  0.00  0.00     0.165 HD
ATOM      5  C4  <0> d           2.349   1.440  -0.013  0.00  0.00     0.036 A 
ATOM      6  C5  <0> d           2.435   0.090  -0.021  0.00  0.00    -0.008 A 
ATOM      7  C6  <0> d           1.249  -0.678  -0.013  0.00  0.00     0.208 A 
ATOM      8  O2  <0> d           1.298  -1.900  -0.020  0.00  0.00    -0.285 OA
ATOM      9  H5  <0> d          -0.962   1.872   0.017  0.00  0.00     0.115 H 
ATOM     10  H6  <0> d           3.400  -0.395  -0.032  0.00  0.00     0.092 H 
ENDROOT
BRANCH   1  11
ATOM     11  O1  <0> d          -1.162  -0.709   0.009  0.00  0.00    -0.351 OA
BRANCH  11  12
ATOM     12  C1  <0> d          -2.376   0.044   0.024  0.00  0.00     0.011 C 
ATOM     13  H2  <0> d          -3.227  -0.638   0.028  0.00  0.00     0.067 H 
ATOM     14  H3  <0> d          -2.406   0.667   0.918  0.00  0.00     0.067 H 
ATOM     15  H4  <0> d          -2.422   0.677  -0.862  0.00  0.00     0.067 H 
ENDBRANCH  11  12
ENDBRANCH   1  11
BRANCH   5  16
ATOM     16  C7  <0> d           3.609   2.266  -0.020  0.00  0.00     0.054 C 
ATOM     17  H7  <0> d           3.623   2.900  -0.907  0.00  0.00     0.083 H 
ATOM     18  H8  <0> d           3.640   2.890   0.873  0.00  0.00     0.083 H 
BRANCH  16  19
ATOM     19  O3  <0> d           4.746   1.400  -0.036  0.00  0.00    -0.395 OA
ATOM     20  H9  <0> d           5.594   1.865  -0.041  0.00  0.00     0.209 HD
ENDBRANCH  16  19
ENDBRANCH   5  16
TORSDOF 4
