REMARK  6 active torsions:
REMARK  status: ('A' for Active; 'I' for Inactive)
REMARK    1  A    between atoms: C1_1  and  C2_2 
REMARK    2  A    between atoms: C2_2  and  C3_3 
REMARK    3  A    between atoms: C3_3  and  C4_5 
REMARK    4  A    between atoms: C3_3  and  O1_12 
REMARK    5  A    between atoms: N2_8  and  C8_11 
REMARK    6  A    between atoms: C6_9  and  C7_10 
ROOT
ATOM      1  C4  <0> d           2.028   1.134  -1.242  0.00  0.00     0.013 A 
ATOM      2  C5  <0> d           1.805  -0.038  -1.971  0.00  0.00     0.032 A 
ATOM      3  N1  <0> d           2.638  -0.057  -2.980  0.00  0.00    -0.184 NA
ATOM      4  N2  <0> d           3.426   1.099  -2.918  0.00  0.00    -0.278 N 
ATOM      5  C6  <0> d           3.033   1.813  -1.843  0.00  0.00     0.036 A 
ATOM      6  H7  <0> d           1.069  -0.795  -1.743  0.00  0.00     0.118 H 
ENDROOT
BRANCH   1   7
ATOM      7  C3  <0> d           1.286   1.562  -0.002  0.00  0.00     0.064 C 
ATOM      8  H1  <0> d           1.123   2.650  -0.008  0.00  0.00     0.090 H 
BRANCH   7   9
ATOM      9  C2  <0> d           2.064   1.114   1.238  0.00  0.00    -0.040 C 
ATOM     10  H5  <0> d           3.092   1.502   1.186  0.00  0.00     0.036 H 
ATOM     11  H6  <0> d           2.088   0.015   1.278  0.00  0.00     0.036 H 
BRANCH   9  12
ATOM     12  C1  <0> d           1.377   1.655   2.493  0.00  0.00    -0.074 C 
ATOM     13  H2  <0> d           1.936   1.333   3.385  0.00  0.00     0.027 H 
ATOM     14  H3  <0> d           0.349   1.267   2.545  0.00  0.00     0.027 H 
ATOM     15  H4  <0> d           1.352   2.754   2.453  0.00  0.00     0.027 H 
ENDBRANCH   9  12
ENDBRANCH   7   9
BRANCH   7  16
ATOM     16  O1  <0> d          -0.011   0.963   0.007  0.00  0.00    -0.391 OA
ATOM     17  H14 <0> d          -0.718   1.169  -0.810  0.00  0.00     0.210 HD
ENDBRANCH   7  16
ENDBRANCH   1   7
BRANCH   5  18
ATOM     18  C7  <0> d           3.608   3.131  -1.392  0.00  0.00    -0.035 C 
ATOM     19  H8  <0> d           4.412   3.434  -2.079  0.00  0.00     0.035 H 
ATOM     20  H9  <0> d           4.014   3.026  -0.376  0.00  0.00     0.035 H 
ATOM     21  H10 <0> d           2.817   3.896  -1.393  0.00  0.00     0.035 H 
ENDBRANCH   5  18
BRANCH   4  22
ATOM     22  C8  <0> d           4.491   1.468  -3.855  0.00  0.00     0.002 C 
ATOM     23  H11 <0> d           4.931   2.429  -3.550  0.00  0.00     0.059 H 
ATOM     24  H12 <0> d           4.072   1.561  -4.867  0.00  0.00     0.059 H 
ATOM     25  H13 <0> d           5.269   0.690  -3.850  0.00  0.00     0.059 H 
ENDBRANCH   4  22
TORSDOF 6
