REMARK  5 active torsions:
REMARK  status: ('A' for Active; 'I' for Inactive)
REMARK    1  A    between atoms: C1_1  and  C2_2 
REMARK    2  A    between atoms: C2_2  and  C3_3 
REMARK    3  A    between atoms: C2_2  and  C4_4 
REMARK    4  A    between atoms: C5_5  and  O2_11 
REMARK    5  A    between atoms: C6_7  and  O1_10 
ROOT
ATOM      1  C4  <0> d          -0.718   1.572   1.248  0.00  0.00     0.113 A 
ATOM      2  C5  <0> d          -1.236   0.660   2.170  0.00  0.00     0.193 A 
ATOM      3  N1  <0> d          -1.847   1.128   3.253  0.00  0.00    -0.179 NA
ATOM      4  C6  <0> d          -1.957   2.437   3.423  0.00  0.00     0.287 A 
ATOM      5  N2  <0> d          -1.461   3.282   2.531  0.00  0.00    -0.103 NA
ATOM      6  N3  <0> d          -0.859   2.864   1.473  0.00  0.00    -0.146 NA
ENDROOT
BRANCH   1   7
ATOM      7  C2  <0> d          -0.013   1.086   0.008  0.00  0.00    -0.013 C 
ATOM      8  H4  <0> d           0.002  -0.004   0.002  0.00  0.00     0.048 H 
BRANCH   7   9
ATOM      9  C1  <0> d           1.423   1.615  -0.003  0.00  0.00    -0.068 C 
ATOM     10  H1  <0> d           1.950   1.254   0.880  0.00  0.00     0.028 H 
ATOM     11  H2  <0> d           1.933   1.264  -0.900  0.00  0.00     0.028 H 
ATOM     12  H3  <0> d           1.408   2.705   0.003  0.00  0.00     0.028 H 
ENDBRANCH   7   9
BRANCH   7  13
ATOM     13  C3  <0> d          -0.753   1.593  -1.232  0.00  0.00    -0.068 C 
ATOM     14  H5  <0> d          -0.242   1.241  -2.128  0.00  0.00     0.028 H 
ATOM     15  H6  <0> d          -1.775   1.215  -1.224  0.00  0.00     0.028 H 
ATOM     16  H7  <0> d          -0.767   2.683  -1.226  0.00  0.00     0.028 H 
ENDBRANCH   7  13
ENDBRANCH   1   7
BRANCH   2  17
ATOM     17  O2  <0> d          -1.113  -0.674   1.966  0.00  0.00    -0.343 OA
ATOM     18  H9  <0> d          -0.309  -1.057   2.342  0.00  0.00     0.219 HD
ENDBRANCH   2  17
BRANCH   4  19
ATOM     19  O1  <0> d          -2.584   2.918   4.524  0.00  0.00    -0.328 OA
ATOM     20  H8  <0> d          -3.535   3.050   4.408  0.00  0.00     0.221 HD
ENDBRANCH   4  19
TORSDOF 5
