REMARK  4 active torsions:
REMARK  status: ('A' for Active; 'I' for Inactive)
REMARK    1  A    between atoms: C1_1  and  O1_2 
REMARK    2  A    between atoms: O1_2  and  C2_3 
REMARK    3  A    between atoms: C2_3  and  C3_5 
REMARK    4  A    between atoms: C3_5  and  N1_8 
ROOT
ATOM      1  C3  <0> d           0.657  -2.104  -1.120  0.00  0.00     0.241 A 
ATOM      2  C4  <0> d           1.982  -2.737  -1.549  0.00  0.00    -0.019 A 
ATOM      3  C5  <0> d           0.789  -2.735  -2.507  0.00  0.00    -0.019 A 
ATOM      4  H4  <0> d           2.811  -2.067  -1.776  0.00  0.00     0.037 H 
ATOM      5  H5  <0> d           2.258  -3.687  -1.091  0.00  0.00     0.037 H 
ATOM      6  H6  <0> d           0.280  -3.684  -2.678  0.00  0.00     0.037 H 
ATOM      7  H7  <0> d           0.833  -2.063  -3.364  0.00  0.00     0.037 H 
ENDROOT
BRANCH   1   8
ATOM      8  C2  <0> d           0.598  -0.600  -1.043  0.00  0.00     0.297 C 
ATOM      9  O2  <0> d           1.088   0.070  -1.921  0.00  0.00    -0.262 OA
BRANCH   8  10
ATOM     10  O1  <0> d           0.002  -0.004   0.002  0.00  0.00    -0.324 OA
BRANCH  10  11
ATOM     11  C1  <0> d          -0.017   1.425   0.010  0.00  0.00     0.013 C 
ATOM     12  H1  <0> d           1.005   1.802   0.002  0.00  0.00     0.067 H 
ATOM     13  H2  <0> d          -0.544   1.786  -0.873  0.00  0.00     0.067 H 
ATOM     14  H3  <0> d          -0.527   1.776   0.907  0.00  0.00     0.067 H 
ENDBRANCH  10  11
ENDBRANCH   8  10
ENDBRANCH   1   8
BRANCH   1  15
ATOM     15  N1  <0> d          -0.146  -2.821  -0.121  0.00  0.00     0.098 N 
ATOM     16  H8  <0> d          -0.166  -2.321   0.755  0.00  0.00     0.314 HD
ATOM     17  H9  <0> d          -1.080  -2.990  -0.462  0.00  0.00     0.314 HD
ENDBRANCH   1  15
TORSDOF 4
