REMARK  4 active torsions:
REMARK  status: ('A' for Active; 'I' for Inactive)
REMARK    1  A    between atoms: C1_1  and  C2_2 
REMARK    2  A    between atoms: C6_6  and  C9_10 
REMARK    3  A    between atoms: C7_7  and  S1_8 
REMARK    4  A    between atoms: S1_8  and  C8_9 
ROOT
ATOM      1  C2  <0> d           1.162   3.163   0.007  0.00  0.00    -0.045 A 
ATOM      2  C3  <0> d           1.177   1.782   0.000  0.00  0.00    -0.076 A 
ATOM      3  C4  <0> d          -0.013   1.076   0.008  0.00  0.00    -0.082 A 
ATOM      4  C5  <0> d          -1.220   1.749   0.017  0.00  0.00    -0.076 A 
ATOM      5  C6  <0> d          -1.243   3.130   0.030  0.00  0.00    -0.045 A 
ATOM      6  C7  <0> d          -0.050   3.843   0.022  0.00  0.00     0.012 A 
ATOM      7  H4  <0> d           2.118   1.253  -0.011  0.00  0.00     0.084 H 
ATOM      8  H5  <0> d           0.002  -0.004   0.002  0.00  0.00     0.083 H 
ATOM      9  H6  <0> d          -2.147   1.195   0.019  0.00  0.00     0.084 H 
ENDROOT
BRANCH   6  10
ATOM     10  S1  <0> d          -0.074   5.604   0.031  0.00  0.00    -0.133 SA
BRANCH  10  11
ATOM     11  C8  <0> d          -0.097   6.052  -1.727  0.00  0.00    -0.030 C 
ATOM     12  H7  <0> d           0.794   5.655  -2.214  0.00  0.00     0.042 H 
ATOM     13  H8  <0> d          -0.986   5.631  -2.197  0.00  0.00     0.042 H 
ATOM     14  H9  <0> d          -0.113   7.137  -1.826  0.00  0.00     0.042 H 
ENDBRANCH  10  11
ENDBRANCH   6  10
BRANCH   1  15
ATOM     15  C1  <0> d           2.458   3.931  -0.000  0.00  0.00    -0.050 C 
ATOM     16  H1  <0> d           2.761   4.122  -1.030  0.00  0.00     0.033 H 
ATOM     17  H2  <0> d           2.321   4.879   0.520  0.00  0.00     0.033 H 
ATOM     18  H3  <0> d           3.229   3.348   0.504  0.00  0.00     0.033 H 
ENDBRANCH   1  15
BRANCH   5  19
ATOM     19  C9  <0> d          -2.560   3.863   0.046  0.00  0.00    -0.050 C 
ATOM     20  H10 <0> d          -2.887   4.045  -0.978  0.00  0.00     0.033 H 
ATOM     21  H11 <0> d          -3.305   3.259   0.564  0.00  0.00     0.033 H 
ATOM     22  H12 <0> d          -2.440   4.814   0.563  0.00  0.00     0.033 H 
ENDBRANCH   5  19
TORSDOF 4
