REMARK  1 active torsions:
REMARK  status: ('A' for Active; 'I' for Inactive)
REMARK    1  A    between atoms: C2_2  and  N1_3 
ROOT
ATOM      1  N1  <0> d          -1.230   1.757   0.017  0.00  0.00    -0.238 N 
ATOM      2  C3  <0> d          -2.462   1.210   0.020  0.00  0.00     0.089 A 
ATOM      3  N2  <0> d          -3.337   2.183   0.030  0.00  0.00    -0.233 NA
ATOM      4  C4  <0> d          -2.708   3.358   0.035  0.00  0.00     0.107 A 
ATOM      5  N3  <0> d          -1.417   3.149   0.032  0.00  0.00    -0.160 NA
ATOM      6  H4  <0> d          -2.688   0.154   0.015  0.00  0.00     0.146 H 
ATOM      7  H5  <0> d          -3.186   4.326   0.043  0.00  0.00     0.149 H 
ENDROOT
BRANCH   1   8
ATOM      8  C2  <0> d          -0.013   1.076   0.008  0.00  0.00    -0.004 C 
ATOM      9  C1  <0> d           1.120   1.750   0.001  0.00  0.00    -0.105 C 
ATOM     10  H1  <0> d           2.063   1.223  -0.011  0.00  0.00     0.068 H 
ATOM     11  H2  <0> d           1.105   2.830   0.007  0.00  0.00     0.068 H 
ATOM     12  H3  <0> d           0.002  -0.004   0.002  0.00  0.00     0.113 H 
ENDBRANCH   1   8
TORSDOF 1
