REMARK  2 active torsions:
REMARK  status: ('A' for Active; 'I' for Inactive)
REMARK    1  A    between atoms: C1_1  and  C2_2 
REMARK    2  A    between atoms: C5_7  and  C6_8 
ROOT
ATOM      1  C2  <0> d          -1.116   1.851   0.017  0.00  0.00    -0.039 A 
ATOM      2  C3  <0> d          -0.013   1.076   0.008  0.00  0.00    -0.017 A 
ATOM      3  N1  <0> d           1.081   1.890   0.002  0.00  0.00    -0.374 N 
ATOM      4  H1  <0> d           2.091   1.454  -0.009  0.00  0.00     0.164 HD
ATOM      5  C4  <0> d           0.661   3.187   0.012  0.00  0.00    -0.017 A 
ATOM      6  C5  <0> d          -0.687   3.194   0.024  0.00  0.00    -0.039 A 
ATOM      7  H5  <0> d           0.002  -0.004   0.002  0.00  0.00     0.112 H 
ATOM      8  H6  <0> d           1.298   4.059   0.010  0.00  0.00     0.112 H 
ENDROOT
BRANCH   1   9
ATOM      9  C1  <0> d          -2.544   1.371   0.021  0.00  0.00    -0.049 C 
ATOM     10  H2  <0> d          -2.561   0.271   0.013  0.00  0.00     0.033 H 
ATOM     11  H3  <0> d          -3.062   1.752  -0.872  0.00  0.00     0.033 H 
ATOM     12  H4  <0> d          -3.052   1.739   0.924  0.00  0.00     0.033 H 
ENDBRANCH   1   9
BRANCH   6  13
ATOM     13  C6  <0> d          -1.573   4.413   0.038  0.00  0.00    -0.049 C 
ATOM     14  H7  <0> d          -0.950   5.319   0.042  0.00  0.00     0.033 H 
ATOM     15  H8  <0> d          -2.203   4.398   0.940  0.00  0.00     0.033 H 
ATOM     16  H9  <0> d          -2.213   4.411  -0.856  0.00  0.00     0.033 H 
ENDBRANCH   6  13
TORSDOF 2
