REMARK  1 active torsions:
REMARK  status: ('A' for Active; 'I' for Inactive)
REMARK    1  A    between atoms: C6_6  and  N1_7 
ROOT
ATOM      1  C1  <0> d          -1.242   3.038   0.030  0.00  0.00    -0.056 A 
ATOM      2  C2  <0> d          -2.438   3.721   0.035  0.00  0.00    -0.059 A 
ATOM      3  C3  <0> d          -3.644   3.020   0.037  0.00  0.00     0.065 A 
ATOM      4  C4  <0> d          -3.633   1.609   0.029  0.00  0.00     0.067 A 
ATOM      5  C5  <0> d          -2.418   0.932   0.019  0.00  0.00    -0.036 A 
ATOM      6  C6  <0> d          -1.226   1.646   0.017  0.00  0.00     0.027 A 
ATOM      7  C7  <0> d          -4.865   0.879   0.030  0.00  0.00     0.101 C 
ATOM      8  N2  <0> d          -5.842   0.300   0.031  0.00  0.00    -0.191 NA
ATOM      9  C8  <0> d          -4.888   3.729   0.046  0.00  0.00     0.101 C 
ATOM     10  N3  <0> d          -5.875   4.291   0.054  0.00  0.00    -0.191 NA
ATOM     11  H1  <0> d          -0.311   3.585   0.033  0.00  0.00     0.086 H 
ATOM     12  H2  <0> d          -2.442   4.801   0.041  0.00  0.00     0.086 H 
ATOM     13  H3  <0> d          -2.402  -0.148   0.013  0.00  0.00     0.089 H 
ENDROOT
BRANCH   6  14
ATOM     14  N1  <0> d          -0.011   0.966   0.007  0.00  0.00    -0.399 N 
ATOM     15  H4  <0> d           0.002  -0.004   0.002  0.00  0.00     0.156 HD
ATOM     16  H5  <0> d           0.822   1.462   0.002  0.00  0.00     0.156 HD
ENDBRANCH   6  14
TORSDOF 1
