REMARK  1 active torsions:
REMARK  status: ('A' for Active; 'I' for Inactive)
REMARK    1  A    between atoms: C1_1  and  C2_2 
ROOT
ATOM      1  C2  <0> d           0.002  -0.004   0.002  0.00  0.00     0.036 A 
ATOM      2  N1  <0> d           0.006  -0.657  -1.111  0.00  0.00    -0.071 NA
ATOM      3  C3  <0> d           0.024  -2.016  -1.180  0.00  0.00     0.735 A 
ATOM      4  N2  <0> d           0.030  -2.804  -2.242  0.00  0.00    -0.073 NA
ATOM      5  C4  <0> d           0.050  -4.084  -1.853  0.00  0.00     0.037 A 
ATOM      6  C5  <0> d           0.056  -4.122  -0.507  0.00  0.00     0.023 A 
ATOM      7  N3  <0> d           0.040  -2.817  -0.071  0.00  0.00    -0.120 N 
ATOM      8  C6  <0> d           0.038  -2.297   1.175  0.00  0.00     0.247 A 
ATOM      9  O1  <0> d           0.052  -3.007   2.153  0.00  0.00    -0.272 OA
ATOM     10  C7  <0> d           0.025  -0.785   1.300  0.00  0.00     0.047 A 
ATOM     11  H4  <0> d           0.059  -4.942  -2.508  0.00  0.00     0.117 H 
ATOM     12  H5  <0> d           0.071  -5.008   0.111  0.00  0.00     0.115 H 
ATOM     13  H6  <0> d           0.908  -0.481   1.862  0.00  0.00     0.056 H 
ATOM     14  H7  <0> d          -0.855  -0.505   1.879  0.00  0.00     0.056 H 
ENDROOT
BRANCH   1  15
ATOM     15  C1  <0> d          -0.018   1.503   0.010  0.00  0.00    -0.038 C 
ATOM     16  H1  <0> d           1.004   1.880   0.003  0.00  0.00     0.035 H 
ATOM     17  H2  <0> d          -0.545   1.864  -0.873  0.00  0.00     0.035 H 
ATOM     18  H3  <0> d          -0.529   1.854   0.907  0.00  0.00     0.035 H 
ENDBRANCH   1  15
TORSDOF 1
