REMARK  0 active torsions:
REMARK  status: ('A' for Active; 'I' for Inactive)
ROOT
ATOM      1  C1  <0> d           1.599   3.161   0.004  0.00  0.00    -0.052 A 
ATOM      2  C2  <0> d           0.550   4.034   0.018  0.00  0.00     0.003 A 
ATOM      3  N1  <0> d          -0.704   3.610   0.028  0.00  0.00    -0.271 NA
ATOM      4  C3  <0> d          -1.017   2.331   0.029  0.00  0.00     0.030 A 
ATOM      5  C4  <0> d          -0.017   1.366   0.010  0.00  0.00     0.079 A 
ATOM      6  C5  <0> d           1.331   1.785  -0.001  0.00  0.00     0.014 A 
ATOM      7  C6  <0> d           2.125   0.617  -0.015  0.00  0.00     0.034 A 
ATOM      8  N2  <0> d           1.339  -0.421  -0.013  0.00  0.00    -0.186 NA
ATOM      9  N3  <0> d           0.002  -0.004   0.002  0.00  0.00    -0.276 N 
ATOM     10  H1  <0> d          -0.799  -0.602   0.006  0.00  0.00     0.189 HD
ATOM     11  H2  <0> d           2.616   3.523  -0.004  0.00  0.00     0.087 H 
ATOM     12  H3  <0> d           0.747   5.096   0.022  0.00  0.00     0.114 H 
ATOM     13  H4  <0> d          -2.054   2.031   0.043  0.00  0.00     0.118 H 
ATOM     14  H5  <0> d           3.205   0.590  -0.026  0.00  0.00     0.118 H 
ENDROOT
TORSDOF 0
