REMARK  2 active torsions:
REMARK  status: ('A' for Active; 'I' for Inactive)
REMARK    1  A    between atoms: C1_1  and  N1_2 
REMARK    2  A    between atoms: C8_9  and  N2_11 
ROOT
ATOM      1  N1  <0> d           0.002  -0.004   0.002  0.00  0.00    -0.384 N 
ATOM      2  C2  <0> d          -1.187  -0.860   0.003  0.00  0.00    -0.002 A 
ATOM      3  C3  <0> d          -0.647  -2.300  -0.007  0.00  0.00    -0.024 A 
ATOM      4  C4  <0> d           0.857  -2.143  -0.014  0.00  0.00    -0.028 A 
ATOM      5  C5  <0> d           1.159  -0.791  -0.014  0.00  0.00     0.036 A 
ATOM      6  C6  <0> d           2.498  -0.393  -0.025  0.00  0.00    -0.055 A 
ATOM      7  C7  <0> d           3.504  -1.335  -0.040  0.00  0.00    -0.056 A 
ATOM      8  C8  <0> d           3.194  -2.688  -0.044  0.00  0.00     0.026 A 
ATOM      9  C9  <0> d           1.864  -3.088  -0.024  0.00  0.00    -0.049 A 
ATOM     10  H4  <0> d          -1.779  -0.685   0.901  0.00  0.00     0.064 H 
ATOM     11  H5  <0> d          -1.787  -0.675  -0.888  0.00  0.00     0.064 H 
ATOM     12  H6  <0> d          -0.971  -2.833   0.887  0.00  0.00     0.042 H 
ATOM     13  H7  <0> d          -0.979  -2.824  -0.904  0.00  0.00     0.042 H 
ATOM     14  H8  <0> d           2.745   0.658  -0.022  0.00  0.00     0.087 H 
ATOM     15  H9  <0> d           4.537  -1.019  -0.049  0.00  0.00     0.087 H 
ATOM     16  H10 <0> d           1.618  -4.139  -0.028  0.00  0.00     0.087 H 
ENDROOT
BRANCH   1  17
ATOM     17  C1  <0> d          -0.018   1.461   0.010  0.00  0.00    -0.018 C 
ATOM     18  H1  <0> d           1.005   1.838   0.002  0.00  0.00     0.056 H 
ATOM     19  H2  <0> d          -0.545   1.822  -0.873  0.00  0.00     0.056 H 
ATOM     20  H3  <0> d          -0.528   1.812   0.907  0.00  0.00     0.056 H 
ENDBRANCH   1  17
BRANCH   8  21
ATOM     21  N2  <0> d           4.216  -3.644  -0.060  0.00  0.00    -0.399 N 
ATOM     22  H11 <0> d           5.144  -3.362  -0.067  0.00  0.00     0.156 HD
ATOM     23  H12 <0> d           3.996  -4.589  -0.062  0.00  0.00     0.156 HD
ENDBRANCH   8  21
TORSDOF 2
