REMARK  3 active torsions:
REMARK  status: ('A' for Active; 'I' for Inactive)
REMARK    1  A    between atoms: C1_1  and  C2_2 
REMARK    2  A    between atoms: C2_2  and  O1_3 
REMARK    3  A    between atoms: O1_3  and  C3_4 
ROOT
ATOM      1  C3  <0> d           0.002  -0.004   0.002  0.00  0.00     0.105 C 
ATOM      2  H1  <0> d          -0.820  -0.396   0.602  0.00  0.00     0.117 H 
ATOM      3  C4  <0> d          -0.019   1.541   0.011  0.00  0.00    -0.017 C 
ATOM      4  C5  <0> d           1.490   1.876  -0.002  0.00  0.00     0.013 C 
ATOM      5  C6  <0> d           2.147   0.654   0.600  0.00  0.00     0.219 C 
ATOM      6  O2  <0> d           3.282   0.615   1.027  0.00  0.00    -0.274 OA
ATOM      7  N1  <0> d           1.290  -0.381   0.595  0.00  0.00    -0.335 N 
ATOM      8  H7  <0> d          -0.512   1.929  -0.880  0.00  0.00     0.040 H 
ATOM      9  H8  <0> d          -0.495   1.919   0.915  0.00  0.00     0.040 H 
ATOM     10  H9  <0> d           1.838   2.032  -1.023  0.00  0.00     0.047 H 
ATOM     11  H10 <0> d           1.690   2.757   0.609  0.00  0.00     0.047 H 
ATOM     12  H11 <0> d           1.497  -1.265   0.938  0.00  0.00     0.165 HD
ENDROOT
BRANCH   1  13
ATOM     13  O1  <0> d          -0.088  -0.492  -1.338  0.00  0.00    -0.367 OA
BRANCH  13  14
ATOM     14  C2  <0> d          -0.414  -1.881  -1.430  0.00  0.00     0.019 C 
ATOM     15  H5  <0> d           0.352  -2.468  -0.924  0.00  0.00     0.073 H 
ATOM     16  H6  <0> d          -1.380  -2.059  -0.957  0.00  0.00     0.073 H 
BRANCH  14  17
ATOM     17  C1  <0> d          -0.483  -2.292  -2.902  0.00  0.00    -0.056 C 
ATOM     18  H2  <0> d           0.483  -2.113  -3.375  0.00  0.00     0.030 H 
ATOM     19  H3  <0> d          -0.732  -3.351  -2.972  0.00  0.00     0.030 H 
ATOM     20  H4  <0> d          -1.249  -1.704  -3.408  0.00  0.00     0.030 H 
ENDBRANCH  14  17
ENDBRANCH  13  14
ENDBRANCH   1  13
TORSDOF 3
