REMARK  1 active torsions:
REMARK  status: ('A' for Active; 'I' for Inactive)
REMARK    1  A    between atoms: C3_3  and  N2_10 
ROOT
ATOM      1  C1  <0> d           0.002  -0.004   0.002  0.00  0.00    -0.078 A 
ATOM      2  C2  <0> d           1.202  -0.688  -0.013  0.00  0.00    -0.056 A 
ATOM      3  C3  <0> d           2.402   0.010  -0.021  0.00  0.00     0.049 A 
ATOM      4  C4  <0> d           2.389   1.414  -0.013  0.00  0.00     0.109 A 
ATOM      5  C5  <0> d           1.166   2.094   0.002  0.00  0.00     0.139 A 
ATOM      6  C6  <0> d          -0.017   1.380   0.010  0.00  0.00    -0.044 A 
ATOM      7  F1  <0> d           1.142   3.444   0.010  0.00  0.00    -0.204 F 
ATOM      8  C7  <0> d           3.620   2.146  -0.022  0.00  0.00     0.105 C 
ATOM      9  N1  <0> d           4.597   2.726  -0.028  0.00  0.00    -0.191 NA
ATOM     10  H1  <0> d          -0.928  -0.553   0.008  0.00  0.00     0.083 H 
ATOM     11  H2  <0> d           1.207  -1.768  -0.019  0.00  0.00     0.087 H 
ATOM     12  H3  <0> d          -0.961   1.905   0.017  0.00  0.00     0.088 H 
ENDROOT
BRANCH   3  13
ATOM     13  N2  <0> d           3.610  -0.678  -0.036  0.00  0.00    -0.398 N 
ATOM     14  H4  <0> d           3.616  -1.648  -0.041  0.00  0.00     0.156 HD
ATOM     15  H5  <0> d           4.447  -0.188  -0.041  0.00  0.00     0.156 HD
ENDBRANCH   3  13
TORSDOF 1
