REMARK  0 active torsions:
REMARK  status: ('A' for Active; 'I' for Inactive)
ROOT
ATOM      1  C1  <0> d          -1.236   3.401   0.032  0.00  0.00    -0.056 A 
ATOM      2  C2  <0> d          -1.229   2.015   0.019  0.00  0.00    -0.025 A 
ATOM      3  C3  <0> d          -0.016   1.347   0.009  0.00  0.00     0.209 A 
ATOM      4  N1  <0> d           1.123   2.015   0.002  0.00  0.00    -0.231 NA
ATOM      5  C4  <0> d           1.152   3.334   0.009  0.00  0.00     0.026 A 
ATOM      6  C5  <0> d          -0.019   4.068   0.024  0.00  0.00     0.051 A 
ATOM      7 Cl1  <0> d           0.031   5.803   0.033  0.00  0.00    -0.083 Cl
ATOM      8  F1  <0> d           0.002  -0.004   0.002  0.00  0.00    -0.184 F 
ATOM      9  H1  <0> d          -2.167   3.948   0.043  0.00  0.00     0.086 H 
ATOM     10  H2  <0> d          -2.158   1.464   0.021  0.00  0.00     0.090 H 
ATOM     11  H3  <0> d           2.103   3.846   0.002  0.00  0.00     0.117 H 
ENDROOT
TORSDOF 0
