REMARK  7 active torsions:
REMARK  status: ('A' for Active; 'I' for Inactive)
REMARK    1  A    between atoms: C1_1  and  O1_2 
REMARK    2  A    between atoms: O1_2  and  C2_3 
REMARK    3  A    between atoms: C2_3  and  C3_4 
REMARK    4  A    between atoms: C2_3  and  C5_6 
REMARK    5  A    between atoms: C3_4  and  C4_5 
REMARK    6  A    between atoms: C5_6  and  C6_7 
REMARK    7  A    between atoms: C6_7  and  O2_8 
ROOT
ATOM      1  C2  <0> d          -1.195  -0.635   0.010  0.00  0.00     0.155 C 
ENDROOT
BRANCH   1   2
ATOM      2  O1  <0> d           0.002  -0.004   0.002  0.00  0.00    -0.369 OA
BRANCH   2   3
ATOM      3  C1  <0> d          -0.017   1.425   0.010  0.00  0.00     0.006 C 
ATOM      4  H1  <0> d           1.005   1.802   0.002  0.00  0.00     0.066 H 
ATOM      5  H2  <0> d          -0.544   1.786  -0.873  0.00  0.00     0.066 H 
ATOM      6  H3  <0> d          -0.527   1.776   0.907  0.00  0.00     0.066 H 
ENDBRANCH   2   3
ENDBRANCH   1   2
BRANCH   1   7
ATOM      7  C3  <0> d          -2.300   0.062   0.024  0.00  0.00    -0.141 C 
BRANCH   7   8
ATOM      8  C4  <0> d          -3.406   0.759   0.039  0.00  0.00    -0.009 C 
ATOM      9  H4  <0> d          -3.854   1.042   0.980  0.00  0.00     0.051 H 
ATOM     10  H5  <0> d          -3.872   1.052  -0.891  0.00  0.00     0.051 H 
ENDBRANCH   7   8
ENDBRANCH   1   7
BRANCH   1  11
ATOM     11  C5  <0> d          -1.253  -2.140   0.003  0.00  0.00    -0.003 C 
ATOM     12  H6  <0> d          -0.762  -2.519  -0.894  0.00  0.00     0.042 H 
ATOM     13  H7  <0> d          -0.746  -2.528   0.886  0.00  0.00     0.042 H 
BRANCH  11  14
ATOM     14  C6  <0> d          -2.715  -2.594   0.014  0.00  0.00     0.020 C 
ATOM     15  H8  <0> d          -3.205  -2.216   0.911  0.00  0.00     0.074 H 
ATOM     16  H9  <0> d          -3.222  -2.207  -0.869  0.00  0.00     0.074 H 
BRANCH  14  17
ATOM     17  O2  <0> d          -2.770  -4.022   0.007  0.00  0.00    -0.401 OA
ATOM     18  H10 <0> d          -3.668  -4.381   0.014  0.00  0.00     0.209 HD
ENDBRANCH  14  17
ENDBRANCH  11  14
ENDBRANCH   1  11
TORSDOF 7
