REMARK  3 active torsions:
REMARK  status: ('A' for Active; 'I' for Inactive)
REMARK    1  A    between atoms: C1_1  and  C2_2 
REMARK    2  A    between atoms: C4_5  and  C6_9 
REMARK    3  A    between atoms: C5_6  and  N3_8 
ROOT
ATOM      1  C2  <0> d           0.060   1.494  -0.007  0.00  0.00     0.050 A 
ATOM      2  C3  <0> d          -0.066   0.112  -0.011  0.00  0.00     0.027 A 
ATOM      3  N1  <0> d           1.006  -0.654  -0.008  0.00  0.00    -0.248 NA
ATOM      4  C4  <0> d           2.217  -0.103  -0.001  0.00  0.00     0.178 A 
ATOM      5  C5  <0> d           2.345   1.296   0.003  0.00  0.00     0.157 A 
ATOM      6  N2  <0> d           1.255   2.055  -0.000  0.00  0.00    -0.233 NA
ATOM      7  H4  <0> d          -1.048  -0.338  -0.018  0.00  0.00     0.117 H 
ENDROOT
BRANCH   1   8
ATOM      8  C1  <0> d          -1.174   2.360  -0.018  0.00  0.00    -0.034 C 
ATOM      9  H1  <0> d          -1.482   2.566   1.007  0.00  0.00     0.035 H 
ATOM     10  H2  <0> d          -0.956   3.298  -0.528  0.00  0.00     0.035 H 
ATOM     11  H3  <0> d          -1.978   1.841  -0.540  0.00  0.00     0.035 H 
ENDBRANCH   1   8
BRANCH   5  12
ATOM     12  N3  <0> d           3.598   1.879   0.011  0.00  0.00    -0.382 N 
ATOM     13  H5  <0> d           4.391   1.325  -0.065  0.00  0.00     0.157 HD
ATOM     14  H6  <0> d           3.685   2.841   0.092  0.00  0.00     0.157 HD
ENDBRANCH   5  12
BRANCH   4  15
ATOM     15  C6  <0> d           3.420  -0.958   0.003  0.00  0.00     0.232 C 
ATOM     16  O1  <0> d           4.522  -0.456  -0.094  0.00  0.00    -0.643 OA
ATOM     17  O2  <0> d           3.296  -2.295   0.113  0.00  0.00    -0.643 OA
ENDBRANCH   4  15
TORSDOF 3
