REMARK  1 active torsions:
REMARK  status: ('A' for Active; 'I' for Inactive)
REMARK    1  A    between atoms: C1_1  and  N1_2 
ROOT
ATOM      1  N1  <0> d           2.214   0.754  -0.015  0.00  0.00    -0.340 N 
ATOM      2  C2  <0> d           1.309  -0.267  -0.012  0.00  0.00    -0.012 A 
ATOM      3  C3  <0> d           0.002  -0.004   0.002  0.00  0.00    -0.026 A 
ATOM      4  S1  <0> d          -0.022   1.781   0.012  0.00  0.00    -0.063 SA
ATOM      5  C4  <0> d           1.744   2.050  -0.004  0.00  0.00     0.165 A 
ATOM      6  N2  <0> d           2.413   3.176  -0.004  0.00  0.00    -0.278 NA
ATOM      7  H4  <0> d           1.652  -1.291  -0.021  0.00  0.00     0.112 H 
ATOM      8  H5  <0> d          -0.829  -0.694   0.006  0.00  0.00     0.097 H 
ATOM      9  H6  <0> d           1.939   4.022   0.005  0.00  0.00     0.189 HD
ENDROOT
BRANCH   1  10
ATOM     10  C1  <0> d           3.653   0.479  -0.029  0.00  0.00    -0.013 C 
ATOM     11  H1  <0> d           3.818  -0.608  -0.036  0.00  0.00     0.057 H 
ATOM     12  H2  <0> d           4.118   0.915   0.868  0.00  0.00     0.057 H 
ATOM     13  H3  <0> d           4.102   0.924  -0.929  0.00  0.00     0.057 H 
ENDBRANCH   1  10
TORSDOF 1
