REMARK  3 active torsions:
REMARK  status: ('A' for Active; 'I' for Inactive)
REMARK    1  A    between atoms: C1_1  and  C2_2 
REMARK    2  A    between atoms: C3_4  and  C5_7 
REMARK    3  A    between atoms: C5_7  and  O2_8 
ROOT
ATOM      1  C2  <0> d           2.046   0.726  -0.014  0.00  0.00     0.141 A 
ATOM      2  N1  <0> d           1.260   1.765  -0.001  0.00  0.00    -0.229 NA
ATOM      3  C3  <0> d          -0.016   1.339   0.009  0.00  0.00     0.082 A 
ATOM      4  C4  <0> d           0.002  -0.004   0.002  0.00  0.00     0.047 A 
ATOM      5  O1  <0> d           1.295  -0.383  -0.012  0.00  0.00    -0.306 OA
ATOM      6  H4  <0> d          -0.858  -0.657   0.006  0.00  0.00     0.126 H 
ENDROOT
BRANCH   3   7
ATOM      7  C5  <0> d          -1.245   2.212   0.020  0.00  0.00     0.058 C 
ATOM      8  H5  <0> d          -1.239   2.842   0.922  0.00  0.00     0.083 H 
ATOM      9  H6  <0> d          -1.248   2.852  -0.875  0.00  0.00     0.083 H 
BRANCH   7  10
ATOM     10  O2  <0> d          -2.413   1.389   0.022  0.00  0.00    -0.395 OA
ATOM     11  H7  <0> d          -3.411   1.851   0.029  0.00  0.00     0.209 HD
ENDBRANCH   7  10
ENDBRANCH   3   7
BRANCH   1  12
ATOM     12  C1  <0> d           3.552   0.767  -0.029  0.00  0.00    -0.015 C 
ATOM     13  H1  <0> d           3.891   1.813  -0.026  0.00  0.00     0.038 H 
ATOM     14  H2  <0> d           3.924   0.263  -0.933  0.00  0.00     0.038 H 
ATOM     15  H3  <0> d           3.942   0.253   0.863  0.00  0.00     0.038 H 
ENDBRANCH   1  12
TORSDOF 3
