REMARK  7 active torsions:
REMARK  status: ('A' for Active; 'I' for Inactive)
REMARK    1  A    between atoms: C1_1  and  O1_2 
REMARK    2  A    between atoms: O1_2  and  C2_3 
REMARK    3  A    between atoms: C2_3  and  C3_4 
REMARK    4  A    between atoms: C2_3  and  O4_8 
REMARK    5  A    between atoms: C3_4  and  O3_6 
REMARK    6  A    between atoms: O3_6  and  C4_7 
REMARK    7  A    between atoms: O4_8  and  C5_9 
ROOT
ATOM      1  C2  <0> d           0.329   0.867   0.042  0.00  0.00     0.215 C 
ATOM      2  H4  <0> d           0.647  -0.163  -0.118  0.00  0.00     0.145 H 
ENDROOT
BRANCH   1   3
ATOM      3  O1  <0> d          -0.359   1.339  -1.118  0.00  0.00    -0.357 OA
BRANCH   3   4
ATOM      4  C1  <0> d          -1.264   0.389  -1.684  0.00  0.00     0.007 C 
ATOM      5  H1  <0> d          -1.585   0.733  -2.667  0.00  0.00     0.066 H 
ATOM      6  H2  <0> d          -0.764  -0.575  -1.781  0.00  0.00     0.066 H 
ATOM      7  H3  <0> d          -2.133   0.283  -1.034  0.00  0.00     0.066 H 
ENDBRANCH   3   4
ENDBRANCH   1   3
BRANCH   1   8
ATOM      8  C3  <0> d           1.536   1.733   0.297  0.00  0.00     0.314 C 
ATOM      9  O2  <0> d           1.936   1.894   1.425  0.00  0.00    -0.260 OA
BRANCH   8  10
ATOM     10  O3  <0> d           2.167   2.324  -0.730  0.00  0.00    -0.323 OA
BRANCH  10  11
ATOM     11  C4  <0> d           3.322   3.143  -0.410  0.00  0.00     0.013 C 
ATOM     12  H5  <0> d           3.021   3.953   0.254  0.00  0.00     0.067 H 
ATOM     13  H6  <0> d           4.077   2.530   0.083  0.00  0.00     0.067 H 
ATOM     14  H7  <0> d           3.737   3.560  -1.328  0.00  0.00     0.067 H 
ENDBRANCH  10  11
ENDBRANCH   8  10
ENDBRANCH   1   8
BRANCH   1  15
ATOM     15  O4  <0> d          -0.546   0.926   1.171  0.00  0.00    -0.357 OA
BRANCH  15  16
ATOM     16  C5  <0> d          -1.513  -0.125   1.212  0.00  0.00     0.007 C 
ATOM     17  H8  <0> d          -2.329   0.105   0.526  0.00  0.00     0.066 H 
ATOM     18  H9  <0> d          -1.044  -1.063   0.916  0.00  0.00     0.066 H 
ATOM     19  H10 <0> d          -1.906  -0.218   2.224  0.00  0.00     0.066 H 
ENDBRANCH  15  16
ENDBRANCH   1  15
TORSDOF 7
