REMARK  2 active torsions:
REMARK  status: ('A' for Active; 'I' for Inactive)
REMARK    1  A    between atoms: C1_1  and  S1_2 
REMARK    2  A    between atoms: S1_2  and  C2_3 
ROOT
ATOM      1  C2  <0> d           0.039   3.954   0.022  0.00  0.00     0.183 A 
ATOM      2  C3  <0> d          -1.229   3.206   0.031  0.00  0.00     0.308 A 
ATOM      3  O1  <0> d          -2.293   3.797   0.044  0.00  0.00    -0.263 OA
ATOM      4  N1  <0> d          -1.196   1.857   0.018  0.00  0.00    -0.150 NA
ATOM      5  C4  <0> d          -0.014   1.212   0.009  0.00  0.00     0.365 A 
ATOM      6  O2  <0> d           0.002  -0.004   0.002  0.00  0.00    -0.243 OA
ATOM      7  N2  <0> d           1.147   1.889   0.001  0.00  0.00    -0.226 N 
ATOM      8  H1  <0> d           2.102   1.342  -0.011  0.00  0.00     0.194 HD
ATOM      9  N3  <0> d           1.166   3.288   0.008  0.00  0.00    -0.158 NA
ENDROOT
BRANCH   1  10
ATOM     10  S1  <0> d           0.040   5.716   0.031  0.00  0.00    -0.107 SA
BRANCH  10  11
ATOM     11  C1  <0> d           1.800   6.154   0.015  0.00  0.00    -0.029 C 
ATOM     12  H2  <0> d           1.906   7.249   0.019  0.00  0.00     0.042 H 
ATOM     13  H3  <0> d           2.273   5.743  -0.889  0.00  0.00     0.042 H 
ATOM     14  H4  <0> d           2.290   5.735   0.907  0.00  0.00     0.042 H 
ENDBRANCH  10  11
ENDBRANCH   1  10
TORSDOF 2
