REMARK  2 active torsions:
REMARK  status: ('A' for Active; 'I' for Inactive)
REMARK    1  A    between atoms: C1_1  and  C2_2 
REMARK    2  A    between atoms: C4_6  and  C5_8 
ROOT
ATOM      1  C2  <0> d           0.002  -0.004   0.002  0.00  0.00    -0.012 C 
ATOM      2  H1  <0> d           0.347  -0.420  -0.944  0.00  0.00     0.046 H 
ATOM      3  C3  <0> d          -1.296  -0.647   0.527  0.00  0.00     0.025 C 
ATOM      4  O1  <0> d          -0.426  -1.552   1.237  0.00  0.00    -0.385 OA
ATOM      5  C4  <0> d           0.680  -0.624   1.238  0.00  0.00     0.040 C 
ATOM      6  H2  <0> d           1.645  -1.085   1.027  0.00  0.00     0.083 H 
ATOM      7  H6  <0> d          -1.879   0.005   1.178  0.00  0.00     0.075 H 
ATOM      8  H7  <0> d          -1.895  -1.126  -0.247  0.00  0.00     0.075 H 
ENDROOT
BRANCH   1   9
ATOM      9  C1  <0> d          -0.019   1.526   0.010  0.00  0.00    -0.069 C 
ATOM     10  H3  <0> d           1.004   1.903   0.003  0.00  0.00     0.028 H 
ATOM     11  H4  <0> d          -0.546   1.887  -0.873  0.00  0.00     0.028 H 
ATOM     12  H5  <0> d          -0.529   1.877   0.907  0.00  0.00     0.028 H 
ENDBRANCH   1   9
BRANCH   5  13
ATOM     13  C5  <0> d           0.711   0.301   2.457  0.00  0.00    -0.052 C 
ATOM     14  H8  <0> d          -0.309   0.559   2.743  0.00  0.00     0.030 H 
ATOM     15  H9  <0> d           1.204  -0.206   3.286  0.00  0.00     0.030 H 
ATOM     16  H10 <0> d           1.259   1.210   2.209  0.00  0.00     0.030 H 
ENDBRANCH   5  13
TORSDOF 2
