REMARK  1 active torsions:
REMARK  status: ('A' for Active; 'I' for Inactive)
REMARK    1  A    between atoms: N1_4  and  N2_6 
ROOT
ATOM      1  C1  <0> d          -0.013   1.076   0.008  0.00  0.00    -0.063 A 
ATOM      2  C2  <0> d           1.107   1.915   0.002  0.00  0.00    -0.043 A 
ATOM      3  C3  <0> d           0.642   3.213   0.013  0.00  0.00     0.135 A 
ATOM      4  N1  <0> d          -0.733   3.160   0.025  0.00  0.00    -0.264 N 
ATOM      5  C4  <0> d          -1.117   1.858   0.017  0.00  0.00     0.003 A 
ATOM      6  C5  <0> d           1.443   4.399   0.011  0.00  0.00     0.119 C 
ATOM      7  N3  <0> d           2.079   5.341   0.009  0.00  0.00    -0.190 NA
ATOM      8  H1  <0> d           0.002  -0.004   0.002  0.00  0.00     0.085 H 
ATOM      9  H2  <0> d           2.142   1.605  -0.009  0.00  0.00     0.088 H 
ATOM     10  H3  <0> d          -2.138   1.504   0.019  0.00  0.00     0.114 H 
ENDROOT
BRANCH   4  11
ATOM     11  N2  <0> d          -1.572   4.238   0.038  0.00  0.00    -0.338 N 
ATOM     12  H4  <0> d          -2.661   4.087   0.048  0.00  0.00     0.177 HD
ATOM     13  H5  <0> d          -1.157   5.257   0.039  0.00  0.00     0.177 HD
ENDBRANCH   4  11
TORSDOF 1
