REMARK  5 active torsions:
REMARK  status: ('A' for Active; 'I' for Inactive)
REMARK    1  A    between atoms: C1_1  and  O1_2 
REMARK    2  A    between atoms: O1_2  and  C2_3 
REMARK    3  A    between atoms: C2_3  and  C3_5 
REMARK    4  A    between atoms: C3_5  and  C4_7 
REMARK    5  A    between atoms: C3_5  and  O3_11 
ROOT
ATOM      1  C3  <0> d          -1.329   1.940   0.019  0.00  0.00     0.213 C 
ATOM      2  H1  <0> d          -1.355   2.627   0.865  0.00  0.00     0.113 H 
ENDROOT
BRANCH   1   3
ATOM      3  C2  <0> d          -0.014   1.204   0.009  0.00  0.00     0.296 C 
ATOM      4  O2  <0> d           0.002  -0.004   0.002  0.00  0.00    -0.262 OA
BRANCH   3   5
ATOM      5  O1  <0> d           1.139   1.891   0.001  0.00  0.00    -0.324 OA
BRANCH   5   6
ATOM      6  C1  <0> d           2.367   1.117  -0.015  0.00  0.00     0.013 C 
ATOM      7  H2  <0> d           2.392   0.493  -0.908  0.00  0.00     0.067 H 
ATOM      8  H3  <0> d           3.223   1.792  -0.019  0.00  0.00     0.067 H 
ATOM      9  H4  <0> d           2.409   0.484   0.872  0.00  0.00     0.067 H 
ENDBRANCH   5   6
ENDBRANCH   3   5
ENDBRANCH   1   3
BRANCH   1  10
ATOM     10  C4  <0> d          -1.483   2.728  -1.284  0.00  0.00     0.422 C 
ATOM     11  F1  <0> d          -1.451   1.846  -2.369  0.00  0.00    -0.168 F 
ATOM     12  F2  <0> d          -2.704   3.411  -1.274  0.00  0.00    -0.168 F 
ATOM     13  F3  <0> d          -0.435   3.648  -1.398  0.00  0.00    -0.168 F 
ENDBRANCH   1  10
BRANCH   1  14
ATOM     14  O3  <0> d          -2.400   1.000   0.136  0.00  0.00    -0.378 OA
ATOM     15  H5  <0> d          -2.439   0.356  -0.584  0.00  0.00     0.211 HD
ENDBRANCH   1  14
TORSDOF 5
