REMARK  3 active torsions:
REMARK  status: ('A' for Active; 'I' for Inactive)
REMARK    1  A    between atoms: C1_1  and  C2_2 
REMARK    2  A    between atoms: C2_2  and  C3_3 
REMARK    3  A    between atoms: C5_5  and  C6_8 
ROOT
ATOM      1  C6  <0> d          -4.221  -2.544  -1.290  0.00  0.00     0.061 C 
ATOM      2  C7  <0> d          -4.137  -3.904  -0.733  0.00  0.00     0.065 C 
ATOM      3  N2  <0> d          -4.073  -4.954  -0.303  0.00  0.00    -0.197 NA
ATOM      4  H7  <0> d          -5.233  -2.161  -1.163  0.00  0.00     0.065 H 
ATOM      5  H8  <0> d          -3.972  -2.570  -2.351  0.00  0.00     0.065 H 
ENDROOT
BRANCH   1   6
ATOM      6  C5  <0> d          -3.250  -1.645  -0.568  0.00  0.00     0.093 A 
ATOM      7  C4  <0> d          -1.968  -1.423  -0.916  0.00  0.00    -0.025 A 
ATOM      8  C3  <0> d          -1.412  -0.526   0.013  0.00  0.00     0.064 A 
ATOM      9  H6  <0> d          -1.456  -1.859  -1.762  0.00  0.00     0.090 H 
ATOM     10  N1  <0> d          -2.331  -0.228   0.887  0.00  0.00    -0.133 NA
ATOM     11  O1  <0> d          -3.511  -0.925   0.533  0.00  0.00    -0.217 OA
BRANCH   8  12
ATOM     12  C2  <0> d           0.002  -0.004   0.002  0.00  0.00    -0.026 C 
ATOM     13  H4  <0> d           0.512  -0.356  -0.895  0.00  0.00     0.041 H 
ATOM     14  H5  <0> d           0.529  -0.365   0.885  0.00  0.00     0.041 H 
BRANCH  12  15
ATOM     15  C1  <0> d          -0.019   1.526   0.010  0.00  0.00    -0.071 C 
ATOM     16  H1  <0> d           1.004   1.903   0.003  0.00  0.00     0.028 H 
ATOM     17  H2  <0> d          -0.546   1.887  -0.873  0.00  0.00     0.028 H 
ATOM     18  H3  <0> d          -0.529   1.877   0.907  0.00  0.00     0.028 H 
ENDBRANCH  12  15
ENDBRANCH   8  12
ENDBRANCH   1   6
TORSDOF 3
