REMARK  4 active torsions:
REMARK  status: ('A' for Active; 'I' for Inactive)
REMARK    1  A    between atoms: C1_1  and  N1_2 
REMARK    2  A    between atoms: C4_5  and  C5_7 
REMARK    3  A    between atoms: C5_7  and  O2_9 
REMARK    4  A    between atoms: O2_9  and  C6_10 
ROOT
ATOM      1  N1  <0> d           0.674   5.683   0.025  0.00  0.00    -0.250 N 
ATOM      2  C2  <0> d           2.032   5.638   0.012  0.00  0.00     0.199 A 
ATOM      3  C3  <0> d           2.405   4.335   0.002  0.00  0.00     0.006 A 
ATOM      4  C4  <0> d           1.232   3.550   0.009  0.00  0.00     0.156 A 
ATOM      5  N2  <0> d           0.195   4.366   0.018  0.00  0.00    -0.165 NA
ATOM      6  O3  <0> d           2.867   6.709   0.009  0.00  0.00    -0.171 OA
ATOM      7  H4  <0> d           3.419   3.963  -0.009  0.00  0.00     0.094 H 
ENDROOT
BRANCH   4   8
ATOM      8  C5  <0> d           1.174   2.076   0.002  0.00  0.00     0.313 C 
ATOM      9  O1  <0> d           2.202   1.428  -0.011  0.00  0.00    -0.257 OA
BRANCH   8  10
ATOM     10  O2  <0> d          -0.018   1.448   0.010  0.00  0.00    -0.321 OA
BRANCH  10  11
ATOM     11  C6  <0> d           0.002  -0.004   0.002  0.00  0.00     0.013 C 
ATOM     12  H5  <0> d          -1.030  -0.385   0.010  0.00  0.00     0.067 H 
ATOM     13  H6  <0> d           0.534  -0.368   0.893  0.00  0.00     0.067 H 
ATOM     14  H7  <0> d           0.517  -0.359  -0.903  0.00  0.00     0.067 H 
ENDBRANCH  10  11
ENDBRANCH   8  10
ENDBRANCH   4   8
BRANCH   1  15
ATOM     15  C1  <0> d          -0.147   6.896   0.038  0.00  0.00     0.005 C 
ATOM     16  H1  <0> d           0.507   7.781   0.041  0.00  0.00     0.059 H 
ATOM     17  H2  <0> d          -0.777   6.903   0.939  0.00  0.00     0.059 H 
ATOM     18  H3  <0> d          -0.786   6.916  -0.857  0.00  0.00     0.059 H 
ENDBRANCH   1  15
TORSDOF 4
