REMARK  4 active torsions:
REMARK  status: ('A' for Active; 'I' for Inactive)
REMARK    1  A    between atoms: C1_1  and  O1_2 
REMARK    2  A    between atoms: O1_2  and  C2_3 
REMARK    3  A    between atoms: C2_3  and  C3_5 
REMARK    4  A    between atoms: C6_9  and  N1_10 
ROOT
ATOM      1  C3  <0> d          -1.219  -0.776   0.015  0.00  0.00     0.072 A 
ATOM      2  C4  <0> d          -1.090  -2.152   0.001  0.00  0.00    -0.027 A 
ATOM      3  S1  <0> d           0.625  -2.393  -0.016  0.00  0.00    -0.110 SA
ATOM      4  C5  <0> d           1.164  -0.696  -0.012  0.00  0.00    -0.019 A 
ATOM      5  C6  <0> d           0.002  -0.004   0.002  0.00  0.00     0.049 A 
ATOM      6  H4  <0> d          -1.871  -2.898   0.005  0.00  0.00     0.096 H 
ATOM      7  H5  <0> d           2.173  -0.312  -0.020  0.00  0.00     0.098 H 
ENDROOT
BRANCH   1   8
ATOM      8  C2  <0> d          -2.537  -0.129   0.037  0.00  0.00     0.295 C 
ATOM      9  O2  <0> d          -2.618   1.084   0.045  0.00  0.00    -0.259 OA
BRANCH   8  10
ATOM     10  O1  <0> d          -3.656  -0.880   0.049  0.00  0.00    -0.322 OA
BRANCH  10  11
ATOM     11  C1  <0> d          -4.924  -0.172   0.071  0.00  0.00     0.013 C 
ATOM     12  H1  <0> d          -5.742  -0.893   0.078  0.00  0.00     0.067 H 
ATOM     13  H2  <0> d          -4.978   0.449   0.965  0.00  0.00     0.067 H 
ATOM     14  H3  <0> d          -5.003   0.458  -0.815  0.00  0.00     0.067 H 
ENDBRANCH  10  11
ENDBRANCH   8  10
ENDBRANCH   1   8
BRANCH   5  15
ATOM     15  N1  <0> d          -0.017   1.400   0.010  0.00  0.00    -0.398 N 
ATOM     16  H6  <0> d           0.816   1.896   0.004  0.00  0.00     0.156 HD
ATOM     17  H7  <0> d          -0.864   1.873   0.016  0.00  0.00     0.156 HD
ENDBRANCH   5  15
TORSDOF 4
