REMARK  3 active torsions:
REMARK  status: ('A' for Active; 'I' for Inactive)
REMARK    1  A    between atoms: C1_1  and  C2_2 
REMARK    2  A    between atoms: C2_2  and  C3_3 
REMARK    3  A    between atoms: C3_3  and  C4_4 
ROOT
ATOM      1  C4  <0> d           0.018  -1.999  -1.212  0.00  0.00    -0.029 A 
ATOM      2  C5  <0> d           0.002  -1.292  -2.438  0.00  0.00    -0.072 A 
ATOM      3  C6  <0> d           0.001  -1.981  -3.616  0.00  0.00    -0.082 A 
ATOM      4  C7  <0> d           0.013  -3.369  -3.615  0.00  0.00    -0.083 A 
ATOM      5  C8  <0> d           0.029  -4.076  -2.421  0.00  0.00    -0.082 A 
ATOM      6  C9  <0> d           0.037  -3.414  -1.228  0.00  0.00    -0.072 A 
ATOM      7  H4  <0> d          -0.008  -0.212  -2.442  0.00  0.00     0.084 H 
ATOM      8  H5  <0> d          -0.012  -1.445  -4.553  0.00  0.00     0.083 H 
ATOM      9  H6  <0> d           0.011  -3.904  -4.553  0.00  0.00     0.083 H 
ATOM     10  H7  <0> d           0.039  -5.156  -2.437  0.00  0.00     0.083 H 
ATOM     11  H8  <0> d           0.053  -3.967  -0.300  0.00  0.00     0.084 H 
ENDROOT
BRANCH   1  12
ATOM     12  C3  <0> d           0.020  -1.311  -0.005  0.00  0.00    -0.035 C 
ATOM     13  H3  <0> d           0.036  -1.856   0.927  0.00  0.00     0.097 H 
BRANCH  12  14
ATOM     14  C2  <0> d           0.002  -0.004   0.002  0.00  0.00    -0.154 C 
BRANCH  14  15
ATOM     15  C1  <0> d          -0.016   1.303   0.009  0.00  0.00    -0.008 C 
ATOM     16  H1  <0> d           0.912   1.855   0.003  0.00  0.00     0.052 H 
ATOM     17  H2  <0> d          -0.958   1.830   0.017  0.00  0.00     0.052 H 
ENDBRANCH  14  15
ENDBRANCH  12  14
ENDBRANCH   1  12
TORSDOF 3
