REMARK  0 active torsions:
REMARK  status: ('A' for Active; 'I' for Inactive)
ROOT
ATOM      1  C1  <0> d           3.666   1.981  -0.022  0.00  0.00    -0.038 A 
ATOM      2  C2  <0> d           4.471   0.906  -0.036  0.00  0.00    -0.020 A 
ATOM      3  N1  <0> d           3.722  -0.237  -0.035  0.00  0.00    -0.364 N 
ATOM      4  H1  <0> d           4.080  -1.139  -0.043  0.00  0.00     0.165 HD
ATOM      5  C3  <0> d           2.383   0.082  -0.020  0.00  0.00     0.062 A 
ATOM      6  C4  <0> d           2.288   1.487  -0.012  0.00  0.00     0.084 A 
ATOM      7  N2  <0> d           1.098   2.081   0.003  0.00  0.00    -0.257 NA
ATOM      8  C5  <0> d          -0.017   1.383   0.010  0.00  0.00     0.024 A 
ATOM      9  C6  <0> d           0.002  -0.004   0.002  0.00  0.00     0.053 A 
ATOM     10  C7  <0> d           1.214  -0.672  -0.013  0.00  0.00    -0.033 A 
ATOM     11 Cl1  <0> d          -1.487  -0.897   0.012  0.00  0.00    -0.083 Cl
ATOM     12  H2  <0> d           3.978   3.015  -0.020  0.00  0.00     0.089 H 
ATOM     13  H3  <0> d           5.551   0.939  -0.046  0.00  0.00     0.111 H 
ATOM     14  H4  <0> d          -0.965   1.900   0.017  0.00  0.00     0.117 H 
ATOM     15  H5  <0> d           1.252  -1.752  -0.019  0.00  0.00     0.089 H 
ENDROOT
TORSDOF 0
