REMARK  0 active torsions:
REMARK  status: ('A' for Active; 'I' for Inactive)
ROOT
ATOM      1  C1  <0> d          -0.017   1.412   0.010  0.00  0.00    -0.020 A 
ATOM      2  C2  <0> d          -1.202   2.057   0.019  0.00  0.00    -0.017 A 
ATOM      3  N1  <0> d          -2.370   1.363   0.021  0.00  0.00    -0.343 N 
ATOM      4  C3  <0> d          -2.386   0.006   0.014  0.00  0.00     0.192 A 
ATOM      5  C4  <0> d          -1.226  -0.699   0.004  0.00  0.00     0.019 A 
ATOM      6  C5  <0> d           0.002  -0.004   0.002  0.00  0.00     0.177 A 
ATOM      7  O1  <0> d           1.062  -0.613  -0.011  0.00  0.00    -0.288 OA
ATOM      8  F1  <0> d          -3.567  -0.649   0.016  0.00  0.00    -0.186 F 
ATOM      9  H1  <0> d           0.907   1.970   0.004  0.00  0.00     0.091 H 
ATOM     10  H2  <0> d          -1.223   3.137   0.025  0.00  0.00     0.111 H 
ATOM     11  H3  <0> d          -1.244  -1.778  -0.001  0.00  0.00     0.096 H 
ATOM     12  H4  <0> d          -3.210   1.848   0.028  0.00  0.00     0.167 HD
ENDROOT
TORSDOF 0
