REMARK  0 active torsions:
REMARK  status: ('A' for Active; 'I' for Inactive)
ROOT
ATOM      1  C1  <0> d          -3.618   2.949   0.049  0.00  0.00    -0.065 A 
ATOM      2  C2  <0> d          -2.462   3.707   0.043  0.00  0.00    -0.068 A 
ATOM      3  C3  <0> d          -1.235   3.034   0.029  0.00  0.00     0.010 A 
ATOM      4  C4  <0> d           0.033   3.765   0.021  0.00  0.00    -0.064 A 
ATOM      5  C5  <0> d           1.188   3.053   0.007  0.00  0.00    -0.016 A 
ATOM      6  C6  <0> d           1.150   1.642  -0.000  0.00  0.00     0.246 A 
ATOM      7  O1  <0> d           2.198   1.021  -0.013  0.00  0.00    -0.268 OA
ATOM      8  N1  <0> d          -0.011   0.966   0.007  0.00  0.00    -0.307 N 
ATOM      9  H1  <0> d          -0.007  -0.134   0.006  0.00  0.00     0.170 HD
ATOM     10  C7  <0> d          -1.218   1.626   0.017  0.00  0.00     0.140 A 
ATOM     11  N2  <0> d          -2.360   0.952   0.028  0.00  0.00    -0.242 NA
ATOM     12  C8  <0> d          -3.525   1.565   0.041  0.00  0.00     0.004 A 
ATOM     13  H2  <0> d          -4.585   3.429   0.059  0.00  0.00     0.085 H 
ATOM     14  H3  <0> d          -2.506   4.787   0.049  0.00  0.00     0.085 H 
ATOM     15  H4  <0> d           0.049   4.845   0.026  0.00  0.00     0.085 H 
ATOM     16  H5  <0> d           2.138   3.567   0.001  0.00  0.00     0.092 H 
ATOM     17  H6  <0> d          -4.430   0.977   0.046  0.00  0.00     0.114 H 
ENDROOT
TORSDOF 0
