REMARK  2 active torsions:
REMARK  status: ('A' for Active; 'I' for Inactive)
REMARK    1  A    between atoms: C1_1  and  C2_2 
REMARK    2  A    between atoms: C2_2  and  C7_13 
ROOT
ATOM      1  C2  <0> d           1.361  -0.420  -0.177  0.00  0.00     0.158 C 
ATOM      2  O1  <0> d           0.002  -0.004   0.002  0.00  0.00    -0.345 OA
ATOM      3  C3  <0> d          -0.017   1.429   0.010  0.00  0.00     0.097 C 
ATOM      4  H1  <0> d          -0.586   1.843  -0.823  0.00  0.00     0.091 H 
ATOM      5  C4  <0> d          -0.506   1.929   1.385  0.00  0.00     0.056 C 
ATOM      6  O2  <0> d           0.407   3.009   1.738  0.00  0.00    -0.317 OA
ATOM      7  C5  <0> d           1.611   2.782   1.195  0.00  0.00     0.290 C 
ATOM      8  O3  <0> d           2.654   3.239   1.600  0.00  0.00    -0.262 OA
ATOM      9  C6  <0> d           1.468   1.868  -0.002  0.00  0.00     0.152 C 
ATOM     10  H2  <0> d           1.753   2.350  -0.937  0.00  0.00     0.103 H 
ATOM     11  O4  <0> d           2.209   0.659   0.237  0.00  0.00    -0.338 OA
ATOM     12  H6  <0> d          -1.526   2.305   1.311  0.00  0.00     0.079 H 
ATOM     13  H7  <0> d          -0.449   1.128   2.122  0.00  0.00     0.079 H 
ENDROOT
BRANCH   1  14
ATOM     14  C1  <0> d           1.641  -1.657   0.678  0.00  0.00    -0.025 C 
ATOM     15  H3  <0> d           0.974  -2.465   0.377  0.00  0.00     0.035 H 
ATOM     16  H4  <0> d           2.676  -1.969   0.538  0.00  0.00     0.035 H 
ATOM     17  H5  <0> d           1.472  -1.419   1.728  0.00  0.00     0.035 H 
ENDBRANCH   1  14
BRANCH   1  18
ATOM     18  C7  <0> d           1.614  -0.740  -1.652  0.00  0.00    -0.025 C 
ATOM     19  H8  <0> d           1.426   0.149  -2.254  0.00  0.00     0.035 H 
ATOM     20  H9  <0> d           2.649  -1.056  -1.782  0.00  0.00     0.035 H 
ATOM     21  H10 <0> d           0.947  -1.542  -1.969  0.00  0.00     0.035 H 
ENDBRANCH   1  18
TORSDOF 2
