REMARK  2 active torsions:
REMARK  status: ('A' for Active; 'I' for Inactive)
REMARK    1  A    between atoms: C1_1  and  C2_2 
REMARK    2  A    between atoms: C7_7  and  O1_8 
ROOT
ATOM      1  C2  <0> d           2.397   0.021  -0.021  0.00  0.00    -0.026 A 
ATOM      2  C3  <0> d           1.207  -0.681  -0.013  0.00  0.00    -0.074 A 
ATOM      3  C4  <0> d           0.002  -0.004   0.002  0.00  0.00    -0.079 A 
ATOM      4  C5  <0> d          -0.017   1.379   0.010  0.00  0.00    -0.043 A 
ATOM      5  C6  <0> d           1.171   2.087   0.002  0.00  0.00     0.149 A 
ATOM      6  C7  <0> d           2.383   1.407  -0.013  0.00  0.00     0.110 A 
ATOM      7  F1  <0> d           1.153   3.438   0.009  0.00  0.00    -0.203 F 
ATOM      8  H4  <0> d           1.218  -1.761  -0.018  0.00  0.00     0.084 H 
ATOM      9  H5  <0> d          -0.926  -0.556   0.008  0.00  0.00     0.083 H 
ATOM     10  H6  <0> d          -0.959   1.906   0.017  0.00  0.00     0.088 H 
ENDROOT
BRANCH   1  11
ATOM     11  C1  <0> d           3.709  -0.719  -0.037  0.00  0.00    -0.049 C 
ATOM     12  H1  <0> d           4.016  -0.893  -1.068  0.00  0.00     0.033 H 
ATOM     13  H2  <0> d           4.468  -0.125   0.473  0.00  0.00     0.033 H 
ATOM     14  H3  <0> d           3.594  -1.675   0.474  0.00  0.00     0.033 H 
ENDBRANCH   1  11
BRANCH   6  15
ATOM     15  O1  <0> d           3.552   2.100  -0.021  0.00  0.00    -0.357 OA
ATOM     16  H7  <0> d           3.882   2.305  -0.906  0.00  0.00     0.217 HD
ENDBRANCH   6  15
TORSDOF 2
