REMARK  2 active torsions:
REMARK  status: ('A' for Active; 'I' for Inactive)
REMARK    1  A    between atoms: C3_3  and  N2_8 
REMARK    2  A    between atoms: C6_6  and  N1_7 
ROOT
ATOM      1  C1  <0> d          -0.017   1.385   0.010  0.00  0.00    -0.056 A 
ATOM      2  C2  <0> d           1.169   2.091   0.002  0.00  0.00    -0.055 A 
ATOM      3  C3  <0> d           2.381   1.413  -0.013  0.00  0.00     0.039 A 
ATOM      4  C4  <0> d           2.400   0.025  -0.021  0.00  0.00    -0.055 A 
ATOM      5  C5  <0> d           1.214  -0.682  -0.013  0.00  0.00    -0.056 A 
ATOM      6  C6  <0> d           0.002  -0.004   0.002  0.00  0.00     0.025 A 
ATOM      7  H1  <0> d          -0.959   1.912   0.026  0.00  0.00     0.087 H 
ATOM      8  H2  <0> d           1.155   3.171   0.008  0.00  0.00     0.087 H 
ATOM      9  H3  <0> d           3.343  -0.501  -0.034  0.00  0.00     0.087 H 
ATOM     10  H4  <0> d           1.230  -1.762  -0.019  0.00  0.00     0.087 H 
ENDROOT
BRANCH   3  11
ATOM     11  N2  <0> d           3.587   2.132  -0.022  0.00  0.00    -0.315 N 
ATOM     12  C9  <0> d           3.721   3.483  -0.017  0.00  0.00     0.070 A 
ATOM     13  N3  <0> d           4.994   3.775  -0.026  0.00  0.00    -0.254 NA
ATOM     14  H9  <0> d           2.911   4.197  -0.006  0.00  0.00     0.144 H 
ATOM     15  C8  <0> d           5.709   2.640  -0.045  0.00  0.00     0.019 A 
ATOM     16  C7  <0> d           4.851   1.602  -0.043  0.00  0.00     0.003 A 
ATOM     17  H8  <0> d           6.787   2.571  -0.059  0.00  0.00     0.117 H 
ATOM     18  H7  <0> d           5.109   0.554  -0.055  0.00  0.00     0.114 H 
ENDBRANCH   3  11
BRANCH   6  19
ATOM     19  N1  <0> d          -1.199  -0.720   0.010  0.00  0.00    -0.399 N 
ATOM     20  H5  <0> d          -2.046  -0.246   0.021  0.00  0.00     0.156 HD
ATOM     21  H6  <0> d          -1.186  -1.690   0.005  0.00  0.00     0.156 HD
ENDBRANCH   6  19
TORSDOF 2
