REMARK  3 active torsions:
REMARK  status: ('A' for Active; 'I' for Inactive)
REMARK    1  A    between atoms: C1_1  and  C2_2 
REMARK    2  A    between atoms: C2_2  and  C3_4 
REMARK    3  A    between atoms: C2_2  and  O1_8 
ROOT
ATOM      1  C3  <0> d           0.002  -0.004   0.002  0.00  0.00    -0.029 C 
ATOM      2  C4  <0> d          -0.019   1.534   0.011  0.00  0.00    -0.059 C 
ATOM      3  C5  <0> d           1.518   1.476  -0.004  0.00  0.00    -0.064 C 
ATOM      4  C6  <0> d           1.394   0.090   0.649  0.00  0.00    -0.059 C 
ATOM      5  H5  <0> d           0.014  -0.435  -0.999  0.00  0.00     0.043 H 
ATOM      6  H6  <0> d          -0.448   1.969  -0.892  0.00  0.00     0.033 H 
ATOM      7  H7  <0> d          -0.431   1.960   0.925  0.00  0.00     0.033 H 
ATOM      8  H8  <0> d           1.944   1.450  -1.007  0.00  0.00     0.033 H 
ATOM      9  H9  <0> d           1.989   2.221   0.637  0.00  0.00     0.033 H 
ATOM     10  H10 <0> d           1.368   0.121   1.738  0.00  0.00     0.033 H 
ATOM     11  H11 <0> d           2.105  -0.641   0.263  0.00  0.00     0.033 H 
ENDROOT
BRANCH   1  12
ATOM     12  C2  <0> d          -1.054  -0.636   0.910  0.00  0.00     0.035 C 
ATOM     13  H1  <0> d          -0.889  -0.315   1.938  0.00  0.00     0.082 H 
BRANCH  12  14
ATOM     14  C1  <0> d          -0.950  -2.161   0.830  0.00  0.00    -0.052 C 
ATOM     15  H2  <0> d           0.043  -2.474   1.154  0.00  0.00     0.030 H 
ATOM     16  H3  <0> d          -1.702  -2.611   1.477  0.00  0.00     0.030 H 
ATOM     17  H4  <0> d          -1.115  -2.482  -0.198  0.00  0.00     0.030 H 
ENDBRANCH  12  14
BRANCH  12  18
ATOM     18  O1  <0> d          -2.355  -0.225   0.485  0.00  0.00    -0.396 OA
ATOM     19  H12 <0> d          -3.076  -0.589   1.018  0.00  0.00     0.210 HD
ENDBRANCH  12  18
ENDBRANCH   1  12
TORSDOF 3
