REMARK  3 active torsions:
REMARK  status: ('A' for Active; 'I' for Inactive)
REMARK    1  A    between atoms: C1_1  and  C2_2 
REMARK    2  A    between atoms: C4_4  and  N2_11 
REMARK    3  A    between atoms: C5_5  and  C7_8 
ROOT
ATOM      1  C2  <0> d          -0.314  -0.046   0.025  0.00  0.00    -0.042 A 
ATOM      2  C3  <0> d          -0.109  -0.684  -1.183  0.00  0.00    -0.048 A 
ATOM      3  C4  <0> d           0.239  -2.037  -1.170  0.00  0.00     0.062 A 
ATOM      4  C5  <0> d           0.366  -2.691   0.064  0.00  0.00     0.159 A 
ATOM      5  N1  <0> d           0.158  -2.030   1.199  0.00  0.00    -0.251 NA
ATOM      6  C6  <0> d          -0.165  -0.758   1.208  0.00  0.00     0.009 A 
ATOM      7  H4  <0> d          -0.215  -0.150  -2.116  0.00  0.00     0.087 H 
ATOM      8  H5  <0> d          -0.322  -0.257   2.152  0.00  0.00     0.115 H 
ENDROOT
BRANCH   1   9
ATOM      9  C1  <0> d          -0.690   1.413   0.058  0.00  0.00    -0.050 C 
ATOM     10  H1  <0> d           0.214   2.020   0.095  0.00  0.00     0.033 H 
ATOM     11  H2  <0> d          -1.259   1.662  -0.837  0.00  0.00     0.033 H 
ATOM     12  H3  <0> d          -1.298   1.611   0.942  0.00  0.00     0.033 H 
ENDBRANCH   1   9
BRANCH   3  13
ATOM     13  N2  <0> d           0.455  -2.721  -2.357  0.00  0.00    -0.397 N 
ATOM     14  H6  <0> d           0.514  -2.234  -3.194  0.00  0.00     0.156 HD
ATOM     15  H7  <0> d           0.548  -3.687  -2.350  0.00  0.00     0.156 HD
ENDBRANCH   3  13
BRANCH   4  16
ATOM     16  C7  <0> d           0.732  -4.118   0.103  0.00  0.00     0.231 C 
ATOM     17  O1  <0> d           1.350  -4.617  -0.828  0.00  0.00    -0.643 OA
ATOM     18  O2  <0> d           0.418  -4.804   1.066  0.00  0.00    -0.643 OA
ENDBRANCH   4  16
TORSDOF 3
