REMARK  2 active torsions:
REMARK  status: ('A' for Active; 'I' for Inactive)
REMARK    1  A    between atoms: C3_3  and  C5_7 
REMARK    2  A    between atoms: C5_7  and  C6_8 
ROOT
ATOM      1  C6  <0> d          -0.018   1.468   0.010  0.00  0.00     0.020 C 
ATOM      2  C7  <0> d           0.002  -0.004   0.002  0.00  0.00     0.059 C 
ATOM      3  N2  <0> d           0.018  -1.140  -0.004  0.00  0.00    -0.197 NA
ATOM      4  H7  <0> d           1.005   1.845   0.002  0.00  0.00     0.055 H 
ATOM      5  H8  <0> d          -0.545   1.829  -0.873  0.00  0.00     0.055 H 
ENDROOT
BRANCH   1   6
ATOM      6  C5  <0> d          -0.734   1.961   1.269  0.00  0.00    -0.016 C 
ATOM      7  H5  <0> d          -1.757   1.584   1.277  0.00  0.00     0.043 H 
ATOM      8  H6  <0> d          -0.207   1.600   2.152  0.00  0.00     0.043 H 
BRANCH   6   9
ATOM      9  C3  <0> d          -0.754   3.468   1.277  0.00  0.00     0.009 A 
ATOM     10  C2  <0> d           0.227   4.269   1.739  0.00  0.00    -0.060 A 
ATOM     11  C1  <0> d          -0.196   5.601   1.557  0.00  0.00    -0.066 A 
ATOM     12  H3  <0> d           1.165   3.949   2.168  0.00  0.00     0.086 H 
ATOM     13  C4  <0> d          -1.422   5.563   0.999  0.00  0.00    -0.023 A 
ATOM     14  H2  <0> d           0.359   6.489   1.821  0.00  0.00     0.085 H 
ATOM     15  N1  <0> d          -1.771   4.256   0.824  0.00  0.00    -0.369 N 
ATOM     16  H4  <0> d          -2.025   6.419   0.735  0.00  0.00     0.111 H 
ATOM     17  H1  <0> d          -2.604   3.939   0.441  0.00  0.00     0.165 HD
ENDBRANCH   6   9
ENDBRANCH   1   6
TORSDOF 2
