REMARK  4 active torsions:
REMARK  status: ('A' for Active; 'I' for Inactive)
REMARK    1  A    between atoms: C1_1  and  C2_2 
REMARK    2  A    between atoms: C2_2  and  O1_13 
REMARK    3  A    between atoms: C8_10  and  C9_11 
REMARK    4  A    between atoms: C8_10  and  C10_12 
ROOT
ATOM      1  C2  <0> d           0.073  -0.082  -0.126  0.00  0.00     0.059 C 
ATOM      2  C3  <0> d           0.836  -0.669  -1.323  0.00  0.00    -0.036 C 
ATOM      3  C4  <0> d           1.114  -2.153  -1.046  0.00  0.00    -0.058 C 
ATOM      4  C5  <0> d           1.654  -2.279   0.390  0.00  0.00    -0.046 C 
ATOM      5  H1  <0> d           2.281  -3.155   0.558  0.00  0.00     0.041 H 
ATOM      6  C6  <0> d           2.241  -0.938   0.875  0.00  0.00    -0.054 C 
ATOM      7  C7  <0> d           0.779  -0.538   1.163  0.00  0.00    -0.017 C 
ATOM      8  H2  <0> d           0.633   0.127   2.014  0.00  0.00     0.045 H 
ATOM      9  C8  <0> d           0.538  -2.054   1.427  0.00  0.00    -0.038 C 
ATOM     10  H6  <0> d           0.232  -0.572  -2.225  0.00  0.00     0.037 H 
ATOM     11  H7  <0> d           1.779  -0.138  -1.451  0.00  0.00     0.037 H 
ATOM     12  H8  <0> d           0.191  -2.725  -1.143  0.00  0.00     0.033 H 
ATOM     13  H9  <0> d           1.855  -2.527  -1.752  0.00  0.00     0.033 H 
ATOM     14  H10 <0> d           2.859  -1.024   1.769  0.00  0.00     0.034 H 
ATOM     15  H11 <0> d           2.712  -0.351   0.086  0.00  0.00     0.034 H 
ENDROOT
BRANCH   9  16
ATOM     16  C9  <0> d           0.910  -2.500   2.842  0.00  0.00    -0.069 C 
ATOM     17  H12 <0> d           1.943  -2.222   3.051  0.00  0.00     0.028 H 
ATOM     18  H13 <0> d           0.251  -2.013   3.562  0.00  0.00     0.028 H 
ATOM     19  H14 <0> d           0.801  -3.581   2.924  0.00  0.00     0.028 H 
ENDBRANCH   9  16
BRANCH   9  20
ATOM     20  C10 <0> d          -0.834  -2.564   0.979  0.00  0.00    -0.069 C 
ATOM     21  H15 <0> d          -0.896  -3.638   1.151  0.00  0.00     0.028 H 
ATOM     22  H16 <0> d          -1.613  -2.059   1.550  0.00  0.00     0.028 H 
ATOM     23  H17 <0> d          -0.969  -2.357  -0.083  0.00  0.00     0.028 H 
ENDBRANCH   9  20
BRANCH   1  24
ATOM     24  C1  <0> d           0.082   1.446  -0.207  0.00  0.00    -0.048 C 
ATOM     25  H3  <0> d           1.112   1.804  -0.214  0.00  0.00     0.031 H 
ATOM     26  H4  <0> d          -0.419   1.765  -1.122  0.00  0.00     0.031 H 
ATOM     27  H5  <0> d          -0.440   1.859   0.656  0.00  0.00     0.031 H 
ENDBRANCH   1  24
BRANCH   1  28
ATOM     28  O1  <0> d          -1.275  -0.557  -0.132  0.00  0.00    -0.390 OA
ATOM     29  H18 <0> d          -1.775  -0.312  -0.923  0.00  0.00     0.210 HD
ENDBRANCH   1  28
TORSDOF 4
