REMARK  1 active torsions:
REMARK  status: ('A' for Active; 'I' for Inactive)
REMARK    1  A    between atoms: C1_1  and  C2_2 
ROOT
ATOM      1  C2  <0> d           2.392   1.344  -0.014  0.00  0.00    -0.017 A 
ATOM      2  C3  <0> d           1.176   2.039   0.002  0.00  0.00     0.069 A 
ATOM      3  C4  <0> d          -0.016   1.313   0.009  0.00  0.00     0.022 A 
ATOM      4  N1  <0> d           0.002  -0.004   0.002  0.00  0.00    -0.270 NA
ATOM      5  C5  <0> d           1.131  -0.686  -0.013  0.00  0.00     0.023 A 
ATOM      6  C6  <0> d           2.356  -0.040  -0.021  0.00  0.00     0.059 A 
ATOM      7 Cl1  <0> d           3.831  -0.956  -0.039  0.00  0.00    -0.082 Cl
ATOM      8  C7  <0> d           1.156   3.471   0.009  0.00  0.00     0.101 C 
ATOM      9  N2  <0> d           1.140   4.607   0.015  0.00  0.00    -0.191 NA
ATOM     10  H4  <0> d          -0.961   1.835   0.017  0.00  0.00     0.117 H 
ATOM     11  H5  <0> d           1.100  -1.765  -0.018  0.00  0.00     0.117 H 
ENDROOT
BRANCH   1  12
ATOM     12  C1  <0> d           3.705   2.084  -0.022  0.00  0.00    -0.048 C 
ATOM     13  H1  <0> d           4.012   2.267  -1.051  0.00  0.00     0.033 H 
ATOM     14  H2  <0> d           3.590   3.035   0.498  0.00  0.00     0.033 H 
ATOM     15  H3  <0> d           4.463   1.484   0.482  0.00  0.00     0.033 H 
ENDBRANCH   1  12
TORSDOF 1
