REMARK  2 active torsions:
REMARK  status: ('A' for Active; 'I' for Inactive)
REMARK    1  A    between atoms: C1_1  and  C2_2 
REMARK    2  A    between atoms: C2_2  and  C3_3 
ROOT
ATOM      1  C3  <0> d          -0.729   1.579   1.267  0.00  0.00     0.004 C 
ATOM      2  H1  <0> d          -1.700   1.350   1.209  0.00  0.00     0.051 H 
ATOM      3  C4  <0> d          -0.146   0.816   2.481  0.00  0.00    -0.055 C 
ATOM      4  C5  <0> d          -0.512   1.542   3.798  0.00  0.00    -0.064 C 
ATOM      5  C6  <0> d          -1.914   2.081   3.720  0.00  0.00    -0.065 C 
ATOM      6  C7  <0> d          -1.745   3.556   3.385  0.00  0.00    -0.059 C 
ATOM      7  C8  <0> d          -1.771   3.865   1.954  0.00  0.00    -0.009 C 
ATOM      8  C9  <0> d          -0.625   3.054   1.305  0.00  0.00     0.131 C 
ATOM      9  O1  <0> d           0.337   3.615   0.838  0.00  0.00    -0.298 OA
ATOM     10  H7  <0> d          -0.553  -0.195   2.501  0.00  0.00     0.034 H 
ATOM     11  H8  <0> d           0.939   0.764   2.387  0.00  0.00     0.034 H 
ATOM     12  H9  <0> d           0.182   2.366   3.961  0.00  0.00     0.033 H 
ATOM     13  H10 <0> d          -0.441   0.839   4.628  0.00  0.00     0.033 H 
ATOM     14  H11 <0> d          -2.418   1.965   4.680  0.00  0.00     0.033 H 
ATOM     15  H12 <0> d          -2.475   1.575   2.934  0.00  0.00     0.033 H 
ATOM     16  H13 <0> d          -0.793   3.896   3.794  0.00  0.00     0.033 H 
ATOM     17  H14 <0> d          -2.543   4.115   3.873  0.00  0.00     0.033 H 
ATOM     18  H15 <0> d          -1.638   4.847   1.823  0.00  0.00     0.044 H 
ATOM     19  H16 <0> d          -2.728   3.567   1.526  0.00  0.00     0.044 H 
ENDROOT
BRANCH   1  20
ATOM     20  C2  <0> d          -0.013   1.086   0.008  0.00  0.00    -0.059 C 
ATOM     21  H5  <0> d           0.002  -0.004   0.002  0.00  0.00     0.033 H 
ATOM     22  H6  <0> d           1.010   1.463   0.000  0.00  0.00     0.033 H 
BRANCH  20  23
ATOM     23  C1  <0> d          -0.753   1.593  -1.232  0.00  0.00    -0.076 C 
ATOM     24  H2  <0> d          -0.767   2.683  -1.226  0.00  0.00     0.027 H 
ATOM     25  H3  <0> d          -0.242   1.241  -2.128  0.00  0.00     0.027 H 
ATOM     26  H4  <0> d          -1.775   1.215  -1.224  0.00  0.00     0.027 H 
ENDBRANCH  20  23
ENDBRANCH   1  20
TORSDOF 2
