REMARK  2 active torsions:
REMARK  status: ('A' for Active; 'I' for Inactive)
REMARK    1  A    between atoms: C1_1  and  C2_2 
REMARK    2  A    between atoms: C5_9  and  C6_10 
ROOT
ATOM      1  C2  <0> d           0.002  -0.004   0.002  0.00  0.00    -0.031 A 
ATOM      2  C3  <0> d           0.006  -0.698  -1.175  0.00  0.00    -0.008 A 
ATOM      3  C4  <0> d           0.025  -2.108  -1.108  0.00  0.00     0.261 A 
ATOM      4  O1  <0> d           0.030  -2.774  -2.131  0.00  0.00    -0.267 OA
ATOM      5  N1  <0> d           0.039  -2.710   0.097  0.00  0.00    -0.243 N 
ATOM      6  H1  <0> d           0.052  -3.679   0.141  0.00  0.00     0.192 HD
ATOM      7  N2  <0> d           0.035  -2.035   1.188  0.00  0.00    -0.176 NA
ATOM      8  C5  <0> d           0.023  -0.731   1.204  0.00  0.00     0.057 A 
ATOM      9  H5  <0> d          -0.006  -0.185  -2.125  0.00  0.00     0.093 H 
ENDROOT
BRANCH   1  10
ATOM     10  C1  <0> d          -0.018   1.503   0.010  0.00  0.00    -0.049 C 
ATOM     11  H2  <0> d           1.004   1.880   0.003  0.00  0.00     0.033 H 
ATOM     12  H3  <0> d          -0.545   1.864  -0.873  0.00  0.00     0.033 H 
ATOM     13  H4  <0> d          -0.529   1.854   0.907  0.00  0.00     0.033 H 
ENDBRANCH   1  10
BRANCH   8  14
ATOM     14  C6  <0> d           0.026   0.002   2.521  0.00  0.00    -0.033 C 
ATOM     15  H6  <0> d          -1.000   0.165   2.849  0.00  0.00     0.035 H 
ATOM     16  H7  <0> d           0.555  -0.593   3.266  0.00  0.00     0.035 H 
ATOM     17  H8  <0> d           0.526   0.963   2.401  0.00  0.00     0.035 H 
ENDBRANCH   8  14
TORSDOF 2
