REMARK  0 active torsions:
REMARK  status: ('A' for Active; 'I' for Inactive)
ROOT
ATOM      1  C1  <0> d          -0.017   1.398   0.010  0.00  0.00    -0.026 A 
ATOM      2  C2  <0> d           1.158   2.077   0.002  0.00  0.00     0.025 A 
ATOM      3  N1  <0> d           2.325   1.377  -0.013  0.00  0.00    -0.070 N 
ATOM      4  C3  <0> d           2.309   0.011  -0.020  0.00  0.00     0.751 A 
ATOM      5  N2  <0> d           3.574  -0.396  -0.035  0.00  0.00    -0.052 NA
ATOM      6  C4  <0> d           4.383   0.654  -0.037  0.00  0.00     0.125 A 
ATOM      7  N3  <0> d           3.673   1.757  -0.024  0.00  0.00    -0.146 NA
ATOM      8  N4  <0> d           1.146  -0.651  -0.012  0.00  0.00    -0.049 NA
ATOM      9  C5  <0> d           0.002  -0.004   0.002  0.00  0.00     0.146 A 
ATOM     10 Cl1  <0> d          -1.492  -0.889   0.011  0.00  0.00    -0.062 Cl
ATOM     11  H1  <0> d          -0.956   1.932   0.026  0.00  0.00     0.090 H 
ATOM     12  H2  <0> d           1.167   3.157   0.007  0.00  0.00     0.115 H 
ATOM     13  H3  <0> d           5.462   0.609  -0.048  0.00  0.00     0.150 H 
ENDROOT
TORSDOF 0
