REMARK  3 active torsions:
REMARK  status: ('A' for Active; 'I' for Inactive)
REMARK    1  A    between atoms: C3_3  and  N1_11 
REMARK    2  A    between atoms: C5_5  and  O1_7 
REMARK    3  A    between atoms: O1_7  and  C7_8 
ROOT
ATOM      1  C1  <0> d           3.583   1.961  -0.022  0.00  0.00    -0.078 A 
ATOM      2  C2  <0> d           3.641   3.341  -0.015  0.00  0.00    -0.058 A 
ATOM      3  C3  <0> d           2.469   4.087   0.000  0.00  0.00     0.028 A 
ATOM      4  C4  <0> d           1.239   3.443   0.009  0.00  0.00    -0.025 A 
ATOM      5  C5  <0> d           1.185   2.058   0.002  0.00  0.00     0.077 A 
ATOM      6  C6  <0> d           2.360   1.318  -0.008  0.00  0.00    -0.050 A 
ATOM      7  H1  <0> d           4.495   1.383  -0.033  0.00  0.00     0.083 H 
ATOM      8  H2  <0> d           4.599   3.841  -0.021  0.00  0.00     0.086 H 
ATOM      9  H3  <0> d           0.326   4.020   0.020  0.00  0.00     0.091 H 
ATOM     10  H4  <0> d           2.317   0.239  -0.008  0.00  0.00     0.087 H 
ENDROOT
BRANCH   5  11
ATOM     11  O1  <0> d          -0.017   1.425   0.010  0.00  0.00    -0.290 OA
BRANCH  11  12
ATOM     12  C7  <0> d           0.002  -0.004   0.002  0.00  0.00     0.310 C 
ATOM     13  F1  <0> d           0.657  -0.455  -1.149  0.00  0.00    -0.184 F 
ATOM     14  F2  <0> d           0.679  -0.468   1.135  0.00  0.00    -0.184 F 
ATOM     15  H5  <0> d          -1.020  -0.381   0.010  0.00  0.00     0.195 H 
ENDBRANCH  11  12
ENDBRANCH   5  11
BRANCH   3  16
ATOM     16  N1  <0> d           2.528   5.482   0.008  0.00  0.00    -0.399 N 
ATOM     17  H6  <0> d           1.709   6.002   0.019  0.00  0.00     0.156 HD
ATOM     18  H7  <0> d           3.388   5.931   0.002  0.00  0.00     0.156 HD
ENDBRANCH   3  16
TORSDOF 3
