REMARK  0 active torsions:
REMARK  status: ('A' for Active; 'I' for Inactive)
ROOT
ATOM      1  C1  <0> d           2.205   5.187   0.007  0.00  0.00    -0.064 A 
ATOM      2  C2  <0> d           2.296   3.824  -0.000  0.00  0.00    -0.050 A 
ATOM      3  C3  <0> d           1.101   3.078   0.008  0.00  0.00     0.104 A 
ATOM      4  C4  <0> d          -0.138   3.766   0.024  0.00  0.00     0.178 A 
ATOM      5  N1  <0> d          -0.156   5.103   0.030  0.00  0.00    -0.239 NA
ATOM      6  C5  <0> d           0.954   5.800   0.022  0.00  0.00     0.005 A 
ATOM      7  N2  <0> d          -1.278   3.064   0.032  0.00  0.00    -0.238 NA
ATOM      8  C6  <0> d          -1.235   1.752   0.018  0.00  0.00     0.021 A 
ATOM      9  C7  <0> d          -0.013   1.076   0.008  0.00  0.00     0.020 A 
ATOM     10  N3  <0> d           1.119   1.742   0.001  0.00  0.00    -0.256 NA
ATOM     11  H1  <0> d           3.102   5.788   0.000  0.00  0.00     0.085 H 
ATOM     12  H2  <0> d           3.257   3.332  -0.013  0.00  0.00     0.087 H 
ATOM     13  H3  <0> d           0.897   6.879   0.028  0.00  0.00     0.114 H 
ATOM     14  H4  <0> d          -2.156   1.188   0.019  0.00  0.00     0.117 H 
ATOM     15  H5  <0> d           0.002  -0.004   0.002  0.00  0.00     0.117 H 
ENDROOT
TORSDOF 0
