REMARK  4 active torsions:
REMARK  status: ('A' for Active; 'I' for Inactive)
REMARK    1  A    between atoms: C1_1  and  C2_2 
REMARK    2  A    between atoms: C3_3  and  C7_9 
REMARK    3  A    between atoms: C5_6  and  C6_8 
REMARK    4  A    between atoms: C7_9  and  C8_11 
ROOT
ATOM      1  C2  <0> d           1.339   2.065  -0.005  0.00  0.00     0.048 A 
ATOM      2  C3  <0> d           0.082   1.502   0.261  0.00  0.00     0.051 A 
ATOM      3  C4  <0> d          -0.032   0.105   0.247  0.00  0.00     0.019 A 
ATOM      4  N1  <0> d           1.042  -0.620  -0.014  0.00  0.00    -0.245 NA
ATOM      5  C5  <0> d           2.205  -0.049  -0.258  0.00  0.00     0.122 A 
ATOM      6  N2  <0> d           2.357   1.262  -0.256  0.00  0.00    -0.238 NA
ATOM      7  H4  <0> d          -0.981  -0.371   0.446  0.00  0.00     0.116 H 
ENDROOT
BRANCH   2   8
ATOM      8  C7  <0> d          -1.085   2.354   0.540  0.00  0.00     0.159 C 
ATOM      9  O1  <0> d          -0.947   3.553   0.653  0.00  0.00    -0.293 OA
BRANCH   8  10
ATOM     10  C8  <0> d          -2.452   1.736   0.684  0.00  0.00    -0.016 C 
ATOM     11  H8  <0> d          -2.384   0.746   0.561  0.00  0.00     0.038 H 
ATOM     12  H9  <0> d          -2.846   1.954   1.677  0.00  0.00     0.038 H 
ATOM     13  H10 <0> d          -3.120   2.151  -0.071  0.00  0.00     0.038 H 
ENDBRANCH   8  10
ENDBRANCH   2   8
BRANCH   1  14
ATOM     14  C1  <0> d           1.525   3.560  -0.006  0.00  0.00    -0.035 C 
ATOM     15  H1  <0> d           1.682   3.907   1.016  0.00  0.00     0.035 H 
ATOM     16  H2  <0> d           2.391   3.819  -0.614  0.00  0.00     0.035 H 
ATOM     17  H3  <0> d           0.635   4.037  -0.418  0.00  0.00     0.035 H 
ENDBRANCH   1  14
BRANCH   5  18
ATOM     18  C6  <0> d           3.398  -0.921  -0.551  0.00  0.00    -0.019 C 
ATOM     19  H5  <0> d           3.461  -1.103  -1.624  0.00  0.00     0.037 H 
ATOM     20  H6  <0> d           4.306  -0.420  -0.213  0.00  0.00     0.037 H 
ATOM     21  H7  <0> d           3.291  -1.871  -0.027  0.00  0.00     0.037 H 
ENDBRANCH   5  18
TORSDOF 4
