REMARK  2 active torsions:
REMARK  status: ('A' for Active; 'I' for Inactive)
REMARK    1  A    between atoms: C4_4  and  C7_8 
REMARK    2  A    between atoms: C6_6  and  N1_7 
ROOT
ATOM      1  C7  <0> d          -4.925   0.845   0.030  0.00  0.00     0.041 C 
ATOM      2  C8  <0> d          -5.463   0.794   1.399  0.00  0.00     0.063 C 
ATOM      3  N2  <0> d          -5.879   0.754   2.455  0.00  0.00    -0.197 NA
ATOM      4  H6  <0> d          -5.643   1.341  -0.624  0.00  0.00     0.062 H 
ATOM      5  H7  <0> d          -4.746  -0.168  -0.329  0.00  0.00     0.062 H 
ENDROOT
BRANCH   1   6
ATOM      6  C4  <0> d          -3.629   1.615   0.029  0.00  0.00    -0.004 A 
ATOM      7  C3  <0> d          -3.647   3.000   0.037  0.00  0.00     0.123 A 
ATOM      8  C2  <0> d          -2.458   3.709   0.035  0.00  0.00    -0.043 A 
ATOM      9  F1  <0> d          -4.826   3.659   0.046  0.00  0.00    -0.206 F 
ATOM     10  C1  <0> d          -1.251   3.037   0.030  0.00  0.00    -0.055 A 
ATOM     11  H2  <0> d          -2.474   4.789   0.042  0.00  0.00     0.088 H 
ATOM     12  C6  <0> d          -1.231   1.648   0.017  0.00  0.00     0.026 A 
ATOM     13  H1  <0> d          -0.324   3.591   0.033  0.00  0.00     0.087 H 
ATOM     14  C5  <0> d          -2.425   0.939   0.019  0.00  0.00    -0.048 A 
ATOM     15  H3  <0> d          -2.412  -0.141   0.013  0.00  0.00     0.087 H 
BRANCH  12  16
ATOM     16  N1  <0> d          -0.011   0.966   0.007  0.00  0.00    -0.399 N 
ATOM     17  H4  <0> d           0.002  -0.004   0.002  0.00  0.00     0.156 HD
ATOM     18  H5  <0> d           0.822   1.462   0.002  0.00  0.00     0.156 HD
ENDBRANCH  12  16
ENDBRANCH   1   6
TORSDOF 2
