REMARK  2 active torsions:
REMARK  status: ('A' for Active; 'I' for Inactive)
REMARK    1  A    between atoms: C1_1  and  C2_2 
REMARK    2  A    between atoms: C5_5  and  N1_10 
ROOT
ATOM      1  C2  <0> d          -1.220   1.749   0.017  0.00  0.00    -0.020 A 
ATOM      2  C3  <0> d          -0.013   1.076   0.008  0.00  0.00    -0.072 A 
ATOM      3  C4  <0> d           1.175   1.781   0.000  0.00  0.00    -0.054 A 
ATOM      4  C5  <0> d           1.158   3.170   0.008  0.00  0.00     0.068 A 
ATOM      5  C6  <0> d          -0.056   3.847   0.023  0.00  0.00     0.181 A 
ATOM      6  C7  <0> d          -1.244   3.134   0.031  0.00  0.00     0.163 A 
ATOM      7  F1  <0> d          -2.425   3.789   0.045  0.00  0.00    -0.202 F 
ATOM      8  F2  <0> d          -0.078   5.198   0.031  0.00  0.00    -0.200 F 
ATOM      9  H4  <0> d           0.002  -0.004   0.002  0.00  0.00     0.084 H 
ATOM     10  H5  <0> d           2.117   1.253  -0.012  0.00  0.00     0.087 H 
ENDROOT
BRANCH   1  11
ATOM     11  C1  <0> d          -2.513   0.975   0.019  0.00  0.00    -0.048 C 
ATOM     12  H1  <0> d          -2.820   0.783   1.047  0.00  0.00     0.033 H 
ATOM     13  H2  <0> d          -3.284   1.555  -0.488  0.00  0.00     0.033 H 
ATOM     14  H3  <0> d          -2.370   0.028  -0.500  0.00  0.00     0.033 H 
ENDBRANCH   1  11
BRANCH   4  15
ATOM     15  N1  <0> d           2.359   3.886   0.001  0.00  0.00    -0.397 N 
ATOM     16  H6  <0> d           3.206   3.412  -0.009  0.00  0.00     0.156 HD
ATOM     17  H7  <0> d           2.346   4.856   0.006  0.00  0.00     0.156 HD
ENDBRANCH   4  15
TORSDOF 2
