REMARK  5 active torsions:
REMARK  status: ('A' for Active; 'I' for Inactive)
REMARK    1  A    between atoms: C1_1  and  C2_2 
REMARK    2  A    between atoms: C2_2  and  O3_10 
REMARK    3  A    between atoms: C5_5  and  O2_8 
REMARK    4  A    between atoms: O2_8  and  C6_9 
REMARK    5  A    between atoms: O3_10  and  C7_11 
ROOT
ATOM      1  C2  <0> d           0.002  -0.004   0.002  0.00  0.00     0.163 C 
ATOM      2  C3  <0> d          -1.443  -0.548   0.023  0.00  0.00    -0.009 C 
ATOM      3  C4  <0> d          -1.321  -1.770   0.973  0.00  0.00    -0.014 C 
ATOM      4  C5  <0> d          -0.249  -1.263   1.970  0.00  0.00     0.134 C 
ATOM      5  H1  <0> d          -0.710  -0.639   2.736  0.00  0.00     0.129 H 
ATOM      6  O1  <0> d           0.664  -0.487   1.177  0.00  0.00    -0.326 OA
ATOM      7  H5  <0> d          -2.130   0.194   0.432  0.00  0.00     0.041 H 
ATOM      8  H6  <0> d          -1.754  -0.860  -0.973  0.00  0.00     0.041 H 
ATOM      9  H7  <0> d          -2.265  -1.970   1.479  0.00  0.00     0.040 H 
ATOM     10  H8  <0> d          -0.971  -2.652   0.435  0.00  0.00     0.040 H 
ENDROOT
BRANCH   1  11
ATOM     11  C1  <0> d          -0.019   1.526   0.010  0.00  0.00    -0.025 C 
ATOM     12  H2  <0> d           1.004   1.903   0.003  0.00  0.00     0.035 H 
ATOM     13  H3  <0> d          -0.546   1.887  -0.873  0.00  0.00     0.035 H 
ATOM     14  H4  <0> d          -0.529   1.877   0.907  0.00  0.00     0.035 H 
ENDBRANCH   1  11
BRANCH   1  15
ATOM     15  O3  <0> d           0.681  -0.473  -1.165  0.00  0.00    -0.360 OA
BRANCH  15  16
ATOM     16  C7  <0> d           2.065  -0.118  -1.214  0.00  0.00     0.007 C 
ATOM     17  H12 <0> d           2.162   0.967  -1.199  0.00  0.00     0.066 H 
ATOM     18  H13 <0> d           2.579  -0.541  -0.351  0.00  0.00     0.066 H 
ATOM     19  H14 <0> d           2.508  -0.511  -2.129  0.00  0.00     0.066 H 
ENDBRANCH  15  16
ENDBRANCH   1  15
BRANCH   4  20
ATOM     20  O2  <0> d           0.429  -2.367   2.573  0.00  0.00    -0.366 OA
BRANCH  20  21
ATOM     21  C6  <0> d           1.274  -2.003   3.666  0.00  0.00     0.007 C 
ATOM     22  H9  <0> d           2.038  -1.306   3.319  0.00  0.00     0.066 H 
ATOM     23  H10 <0> d           0.677  -1.528   4.445  0.00  0.00     0.066 H 
ATOM     24  H11 <0> d           1.753  -2.895   4.069  0.00  0.00     0.066 H 
ENDBRANCH  20  21
ENDBRANCH   4  20
TORSDOF 5
