REMARK  4 active torsions:
REMARK  status: ('A' for Active; 'I' for Inactive)
REMARK    1  A    between atoms: C1_1  and  O1_2 
REMARK    2  A    between atoms: O1_2  and  C2_3 
REMARK    3  A    between atoms: C2_3  and  N1_4 
REMARK    4  A    between atoms: C4_7  and  N4_9 
ROOT
ATOM      1  N1  <0> d          -0.698   1.558   1.213  0.00  0.00    -0.224 N 
ATOM      2  C3  <0> d          -1.802   2.323   1.263  0.00  0.00     0.104 A 
ATOM      3  N2  <0> d          -2.103   2.525   2.521  0.00  0.00    -0.055 NA
ATOM      4  C4  <0> d          -1.210   1.912   3.304  0.00  0.00     0.738 A 
ATOM      5  N3  <0> d          -0.328   1.306   2.544  0.00  0.00     0.024 NA
ATOM      6  H6  <0> d          -2.347   2.704   0.412  0.00  0.00     0.147 H 
ENDROOT
BRANCH   1   7
ATOM      7  C2  <0> d          -0.013   1.086   0.008  0.00  0.00     0.100 C 
ATOM      8  H4  <0> d           0.002  -0.004   0.002  0.00  0.00     0.110 H 
ATOM      9  H5  <0> d           1.010   1.463   0.000  0.00  0.00     0.110 H 
BRANCH   7  10
ATOM     10  O1  <0> d          -0.704   1.559  -1.150  0.00  0.00    -0.375 OA
BRANCH  10  11
ATOM     11  C1  <0> d          -0.114   1.152  -2.386  0.00  0.00     0.006 C 
ATOM     12  H1  <0> d           0.907   1.531  -2.443  0.00  0.00     0.066 H 
ATOM     13  H2  <0> d          -0.101   0.064  -2.442  0.00  0.00     0.066 H 
ATOM     14  H3  <0> d          -0.697   1.552  -3.216  0.00  0.00     0.066 H 
ENDBRANCH  10  11
ENDBRANCH   7  10
ENDBRANCH   1   7
BRANCH   4  15
ATOM     15  N4  <0> d          -1.214   1.917   4.700  0.00  0.00    -0.230 N 
ATOM     16  H7  <0> d          -0.523   1.443   5.188  0.00  0.00     0.174 HD
ATOM     17  H8  <0> d          -1.908   2.394   5.181  0.00  0.00     0.174 HD
ENDBRANCH   4  15
TORSDOF 4
