REMARK  2 active torsions:
REMARK  status: ('A' for Active; 'I' for Inactive)
REMARK    1  A    between atoms: C1_1  and  C2_2 
REMARK    2  A    between atoms: C2_2  and  C3_3 
ROOT
ATOM      1  C3  <0> d          -1.433  -0.534   0.013  0.00  0.00    -0.038 C 
ATOM      2  H1  <0> d          -1.987  -0.110   0.850  0.00  0.00     0.045 H 
ATOM      3  C4  <0> d          -1.437  -2.078   0.091  0.00  0.00    -0.056 C 
ATOM      4  C5  <0> d          -2.645  -2.427  -0.809  0.00  0.00    -0.049 C 
ATOM      5  C6  <0> d          -2.784  -1.246  -1.741  0.00  0.00    -0.106 C 
ATOM      6  C7  <0> d          -2.123  -0.211  -1.292  0.00  0.00    -0.102 C 
ATOM      7  H7  <0> d          -0.514  -2.493  -0.315  0.00  0.00     0.034 H 
ATOM      8  H8  <0> d          -1.600  -2.418   1.114  0.00  0.00     0.034 H 
ATOM      9  H9  <0> d          -2.447  -3.337  -1.375  0.00  0.00     0.038 H 
ATOM     10  H10 <0> d          -3.546  -2.542  -0.206  0.00  0.00     0.038 H 
ATOM     11  H11 <0> d          -3.354  -1.255  -2.658  0.00  0.00     0.076 H 
ATOM     12  H12 <0> d          -2.076   0.748  -1.787  0.00  0.00     0.076 H 
ENDROOT
BRANCH   1  13
ATOM     13  C2  <0> d           0.002  -0.004   0.002  0.00  0.00    -0.062 C 
ATOM     14  H5  <0> d           0.512  -0.356  -0.895  0.00  0.00     0.033 H 
ATOM     15  H6  <0> d           0.529  -0.365   0.885  0.00  0.00     0.033 H 
BRANCH  13  16
ATOM     16  C1  <0> d          -0.019   1.526   0.010  0.00  0.00    -0.076 C 
ATOM     17  H2  <0> d           1.004   1.903   0.003  0.00  0.00     0.027 H 
ATOM     18  H3  <0> d          -0.546   1.887  -0.873  0.00  0.00     0.027 H 
ATOM     19  H4  <0> d          -0.529   1.877   0.907  0.00  0.00     0.027 H 
ENDBRANCH  13  16
ENDBRANCH   1  13
TORSDOF 2
