REMARK  5 active torsions:
REMARK  status: ('A' for Active; 'I' for Inactive)
REMARK    1  A    between atoms: C1_1  and  O1_2 
REMARK    2  A    between atoms: O1_2  and  C2_3 
REMARK    3  A    between atoms: C2_3  and  C3_5 
REMARK    4  A    between atoms: C3_5  and  N1_7 
REMARK    5  A    between atoms: C3_5  and  O4_11 
REMARK       I    between atoms: N1_7  and  C4_8 
REMARK       I    between atoms: C4_8  and  N2_10 
ROOT
ATOM      1  C3  <0> d          -1.290   1.681   0.017  0.00  0.00     0.189 C 
ATOM      2  H1  <0> d          -1.134   2.699   0.374  0.00  0.00     0.134 H 
ENDROOT
BRANCH   1   3
ATOM      3  C2  <0> d          -2.255   0.971   0.931  0.00  0.00     0.307 C 
ATOM      4  O2  <0> d          -2.580   1.479   1.978  0.00  0.00    -0.260 OA
BRANCH   3   5
ATOM      5  O1  <0> d          -2.754  -0.225   0.582  0.00  0.00    -0.323 OA
BRANCH   5   6
ATOM      6  C1  <0> d          -3.678  -0.850   1.511  0.00  0.00     0.013 C 
ATOM      7  H2  <0> d          -3.181  -1.008   2.468  0.00  0.00     0.067 H 
ATOM      8  H3  <0> d          -4.543  -0.203   1.654  0.00  0.00     0.067 H 
ATOM      9  H4  <0> d          -4.005  -1.809   1.109  0.00  0.00     0.067 H 
ENDBRANCH   5   6
ENDBRANCH   3   5
ENDBRANCH   1   3
BRANCH   1  10
ATOM     10  N1  <0> d          -0.011   0.966   0.007  0.00  0.00    -0.308 N 
ATOM     11  C4  <0> d           1.147   1.655  -0.000  0.00  0.00     0.316 C 
ATOM     12  O3  <0> d           1.130   2.871   0.007  0.00  0.00    -0.248 OA
ATOM     13  N2  <0> d           2.323   0.998  -0.015  0.00  0.00    -0.352 N 
ATOM     14  H6  <0> d           2.336   0.028  -0.020  0.00  0.00     0.160 HD
ATOM     15  H7  <0> d           3.156   1.494  -0.020  0.00  0.00     0.160 HD
ATOM     16  H5  <0> d           0.002  -0.004   0.002  0.00  0.00     0.167 HD
ENDBRANCH   1  10
BRANCH   1  17
ATOM     17  O4  <0> d          -1.826   1.717  -1.307  0.00  0.00    -0.368 OA
ATOM     18  H8  <0> d          -1.990   0.843  -1.688  0.00  0.00     0.212 HD
ENDBRANCH   1  17
TORSDOF 5
