REMARK  1 active torsions:
REMARK  status: ('A' for Active; 'I' for Inactive)
REMARK    1  A    between atoms: C10_12  and  O1_14 
ROOT
ATOM      1  C1  <0> d           1.175   1.779   0.000  0.00  0.00    -0.082 A 
ATOM      2  C2  <0> d           1.157   3.161   0.008  0.00  0.00    -0.082 A 
ATOM      3  C3  <0> d          -0.048   3.833   0.022  0.00  0.00    -0.074 A 
ATOM      4  C4  <0> d          -1.243   3.128   0.029  0.00  0.00    -0.023 A 
ATOM      5  C5  <0> d          -1.226   1.750   0.017  0.00  0.00    -0.045 A 
ATOM      6  C6  <0> d          -0.013   1.076   0.008  0.00  0.00    -0.076 A 
ATOM      7  C7  <0> d          -2.633   1.204   0.034  0.00  0.00    -0.021 A 
ATOM      8  H1  <0> d          -2.830   0.336   0.663  0.00  0.00     0.048 H 
ATOM      9  C8  <0> d          -3.540   1.468  -1.169  0.00  0.00    -0.051 A 
ATOM     10  C9  <0> d          -3.583   2.409   0.038  0.00  0.00    -0.017 A 
ATOM     11  H2  <0> d          -4.481   2.448   0.653  0.00  0.00     0.045 H 
ATOM     12  C10 <0> d          -2.664   3.638   0.043  0.00  0.00     0.065 A 
ATOM     13  H3  <0> d          -2.838   4.227   0.944  0.00  0.00     0.091 H 
ATOM     14  H4  <0> d           2.117   1.250  -0.011  0.00  0.00     0.083 H 
ATOM     15  H5  <0> d           2.085   3.714   0.002  0.00  0.00     0.083 H 
ATOM     16  H6  <0> d          -0.061   4.913   0.028  0.00  0.00     0.084 H 
ATOM     17  H7  <0> d           0.002  -0.004   0.002  0.00  0.00     0.084 H 
ATOM     18  H8  <0> d          -4.388   0.799  -1.316  0.00  0.00     0.034 H 
ATOM     19  H9  <0> d          -3.071   1.840  -2.080  0.00  0.00     0.034 H 
ENDROOT
BRANCH  12  20
ATOM     20  O1  <0> d          -2.906   4.437  -1.116  0.00  0.00    -0.390 OA
ATOM     21  H10 <0> d          -2.346   5.223  -1.176  0.00  0.00     0.210 HD
ENDBRANCH  12  20
TORSDOF 1
