REMARK  0 active torsions:
REMARK  status: ('A' for Active; 'I' for Inactive)
ROOT
ATOM      1  C1  <0> d           0.633   3.683  -1.190  0.00  0.00    -0.064 C 
ATOM      2  C2  <0> d           1.383   3.158   0.036  0.00  0.00    -0.063 C 
ATOM      3  C3  <0> d           1.418   1.629  -0.003  0.00  0.00    -0.040 C 
ATOM      4  C4  <0> d          -0.013   1.086   0.008  0.00  0.00     0.051 C 
ATOM      5  H1  <0> d           0.002  -0.004   0.002  0.00  0.00     0.084 H 
ATOM      6  C5  <0> d          -0.759   1.608  -1.229  0.00  0.00    -0.011 C 
ATOM      7  H2  <0> d          -0.247   1.285  -2.135  0.00  0.00     0.046 H 
ATOM      8  C6  <0> d          -0.797   3.137  -1.185  0.00  0.00    -0.058 C 
ATOM      9  C7  <0> d          -2.185   1.048  -1.194  0.00  0.00     0.022 C 
ATOM     10  N1  <0> d          -2.749   1.220   0.143  0.00  0.00    -0.278 NA
ATOM     11  C8  <0> d          -2.042   1.444   1.183  0.00  0.00     0.091 C 
ATOM     12  O1  <0> d          -0.689   1.560   1.178  0.00  0.00    -0.339 OA
ATOM     13  H3  <0> d           0.606   4.772  -1.160  0.00  0.00     0.033 H 
ATOM     14  H4  <0> d           1.143   3.357  -2.096  0.00  0.00     0.033 H 
ATOM     15  H5  <0> d           0.875   3.487   0.942  0.00  0.00     0.033 H 
ATOM     16  H6  <0> d           2.403   3.544   0.030  0.00  0.00     0.033 H 
ATOM     17  H7  <0> d           1.955   1.255   0.869  0.00  0.00     0.036 H 
ATOM     18  H8  <0> d           1.925   1.299  -0.910  0.00  0.00     0.036 H 
ATOM     19  H9  <0> d          -1.307   3.462  -0.278  0.00  0.00     0.033 H 
ATOM     20  H10 <0> d          -1.332   3.512  -2.058  0.00  0.00     0.033 H 
ATOM     21  H11 <0> d          -2.801   1.581  -1.918  0.00  0.00     0.068 H 
ATOM     22  H12 <0> d          -2.164  -0.012  -1.444  0.00  0.00     0.068 H 
ATOM     23  H13 <0> d          -2.551   1.547   2.130  0.00  0.00     0.154 H 
ENDROOT
TORSDOF 0
