REMARK  5 active torsions:
REMARK  status: ('A' for Active; 'I' for Inactive)
REMARK    1  A    between atoms: C1_1  and  C2_2 
REMARK    2  A    between atoms: C2_2  and  C3_3 
REMARK    3  A    between atoms: C2_2  and  C4_4 
REMARK    4  A    between atoms: C2_2  and  C5_5 
REMARK    5  A    between atoms: C7_7  and  N3_11 
ROOT
ATOM      1  C2  <0> d          -4.933   0.947   0.032  0.00  0.00    -0.006 C 
ENDROOT
BRANCH   1   2
ATOM      2  C1  <0> d          -5.199   0.370   1.423  0.00  0.00    -0.064 C 
ATOM      3  H1  <0> d          -5.218   1.178   2.154  0.00  0.00     0.028 H 
ATOM      4  H2  <0> d          -6.160  -0.145   1.425  0.00  0.00     0.028 H 
ATOM      5  H3  <0> d          -4.409  -0.335   1.681  0.00  0.00     0.028 H 
ENDBRANCH   1   2
BRANCH   1   6
ATOM      6  C3  <0> d          -6.043   1.937  -0.331  0.00  0.00    -0.064 C 
ATOM      7  H4  <0> d          -5.853   2.348  -1.322  0.00  0.00     0.028 H 
ATOM      8  H5  <0> d          -7.003   1.422  -0.329  0.00  0.00     0.028 H 
ATOM      9  H6  <0> d          -6.062   2.745   0.401  0.00  0.00     0.028 H 
ENDBRANCH   1   6
BRANCH   1  10
ATOM     10  C4  <0> d          -4.906  -0.187  -0.995  0.00  0.00    -0.064 C 
ATOM     11  H7  <0> d          -4.116  -0.892  -0.737  0.00  0.00     0.028 H 
ATOM     12  H8  <0> d          -5.867  -0.702  -0.993  0.00  0.00     0.028 H 
ATOM     13  H9  <0> d          -4.717   0.224  -1.986  0.00  0.00     0.028 H 
ENDBRANCH   1  10
BRANCH   1  14
ATOM     14  C5  <0> d          -3.605   1.659   0.029  0.00  0.00     0.047 A 
ATOM     15  N2  <0> d          -3.554   2.983   0.036  0.00  0.00    -0.246 NA
ATOM     16  C8  <0> d          -2.399   3.618   0.034  0.00  0.00     0.089 A 
ATOM     17  N1  <0> d          -1.250   2.972   0.030  0.00  0.00    -0.225 NA
ATOM     18  H11 <0> d          -2.393   4.698   0.040  0.00  0.00     0.146 H 
ATOM     19  C7  <0> d          -1.220   1.642   0.017  0.00  0.00     0.124 A 
ATOM     20  C6  <0> d          -2.426   0.939   0.019  0.00  0.00    -0.015 A 
ATOM     21  H10 <0> d          -2.437  -0.141   0.012  0.00  0.00     0.092 H 
BRANCH  19  22
ATOM     22  N3  <0> d          -0.011   0.966   0.007  0.00  0.00    -0.384 N 
ATOM     23  H12 <0> d           0.002  -0.004   0.002  0.00  0.00     0.157 HD
ATOM     24  H13 <0> d           0.822   1.462   0.002  0.00  0.00     0.157 HD
ENDBRANCH  19  22
ENDBRANCH   1  14
TORSDOF 5
