REMARK  4 active torsions:
REMARK  status: ('A' for Active; 'I' for Inactive)
REMARK    1  A    between atoms: C1_1  and  C2_2 
REMARK    2  A    between atoms: C2_2  and  C3_3 
REMARK    3  A    between atoms: C2_2  and  C4_4 
REMARK    4  A    between atoms: C4_4  and  C5_5 
ROOT
ATOM      1  C4  <0> d           1.403   4.598  -0.325  0.00  0.00    -0.057 C 
ATOM      2  H9  <0> d           2.479   4.497  -0.188  0.00  0.00     0.034 H 
ATOM      3  H10 <0> d           1.163   4.530  -1.386  0.00  0.00     0.034 H 
ENDROOT
BRANCH   1   4
ATOM      4  C2  <0> d           0.945   5.955   0.215  0.00  0.00    -0.061 C 
ATOM      5  H5  <0> d          -0.141   6.020   0.160  0.00  0.00     0.038 H 
BRANCH   4   6
ATOM      6  C1  <0> d           1.392   6.101   1.671  0.00  0.00    -0.073 C 
ATOM      7  H2  <0> d           1.066   7.068   2.056  0.00  0.00     0.028 H 
ATOM      8  H3  <0> d           0.949   5.304   2.269  0.00  0.00     0.028 H 
ATOM      9  H4  <0> d           2.478   6.036   1.726  0.00  0.00     0.028 H 
ENDBRANCH   4   6
BRANCH   4  10
ATOM     10  C3  <0> d           1.566   7.074  -0.623  0.00  0.00    -0.073 C 
ATOM     11  H6  <0> d           1.248   6.969  -1.661  0.00  0.00     0.028 H 
ATOM     12  H7  <0> d           1.240   8.040  -0.239  0.00  0.00     0.028 H 
ATOM     13  H8  <0> d           2.653   7.008  -0.568  0.00  0.00     0.028 H 
ENDBRANCH   4  10
ENDBRANCH   1   4
BRANCH   1  14
ATOM     14  C5  <0> d           0.685   3.479   0.433  0.00  0.00    -0.030 C 
ATOM     15  H1  <0> d           0.782   3.616   1.510  0.00  0.00     0.043 H 
ATOM     16  C8  <0> d          -0.800   3.394   0.017  0.00  0.00    -0.001 C 
ATOM     17  N1  <0> d          -1.127   1.963   0.018  0.00  0.00    -0.361 N 
ATOM     18  H14 <0> d          -1.424   3.926   0.736  0.00  0.00     0.064 H 
ATOM     19  H15 <0> d          -0.936   3.810  -0.981  0.00  0.00     0.064 H 
ATOM     20  C7  <0> d          -0.014   1.209   0.009  0.00  0.00     0.217 C 
ATOM     21  H13 <0> d          -2.029   1.608   0.025  0.00  0.00     0.162 HD
ATOM     22  C6  <0> d           1.214   2.092   0.002  0.00  0.00     0.014 C 
ATOM     23  O1  <0> d           0.002  -0.004   0.002  0.00  0.00    -0.274 OA
ATOM     24  H11 <0> d           1.951   1.726   0.716  0.00  0.00     0.047 H 
ATOM     25  H12 <0> d           1.643   2.141  -0.999  0.00  0.00     0.047 H 
ENDBRANCH   1  14
TORSDOF 4
