REMARK  0 active torsions:
REMARK  status: ('A' for Active; 'I' for Inactive)
ROOT
ATOM      1  C1  <0> d           0.002  -0.004   0.002  0.00  0.00    -0.006 A 
ATOM      2  C2  <0> d          -0.017   1.384   0.010  0.00  0.00     0.136 A 
ATOM      3  C3  <0> d           1.183   2.075   0.002  0.00  0.00     0.039 A 
ATOM      4  N1  <0> d           2.333   1.429  -0.013  0.00  0.00    -0.267 NA
ATOM      5  C4  <0> d           2.390   0.112  -0.020  0.00  0.00     0.039 A 
ATOM      6  C5  <0> d           1.232  -0.647  -0.013  0.00  0.00     0.136 A 
ATOM      7  F1  <0> d           1.299  -1.996  -0.021  0.00  0.00    -0.204 F 
ATOM      8  F2  <0> d          -1.191   2.052   0.019  0.00  0.00    -0.204 F 
ATOM      9  H1  <0> d          -0.918  -0.570   0.008  0.00  0.00     0.093 H 
ATOM     10  H2  <0> d           1.177   3.155   0.007  0.00  0.00     0.119 H 
ATOM     11  H3  <0> d           3.351  -0.380  -0.032  0.00  0.00     0.119 H 
ENDROOT
TORSDOF 0
