REMARK  2 active torsions:
REMARK  status: ('A' for Active; 'I' for Inactive)
REMARK    1  A    between atoms: C3_3  and  C6_8 
REMARK    2  A    between atoms: C6_8  and  O2_9 
ROOT
ATOM      1  C1  <0> d          -0.714   1.776  -3.709  0.00  0.00    -0.046 C 
ATOM      2  C2  <0> d           0.029   1.207  -2.495  0.00  0.00    -0.035 C 
ATOM      3  C3  <0> d          -0.753   1.593  -1.232  0.00  0.00     0.064 C 
ATOM      4  H1  <0> d          -0.857   2.676  -1.180  0.00  0.00     0.087 H 
ATOM      5  O1  <0> d          -2.046   0.986  -1.303  0.00  0.00    -0.356 OA
ATOM      6  C4  <0> d          -2.734   1.110  -2.459  0.00  0.00     0.009 C 
ATOM      7  C5  <0> d          -2.181   1.463  -3.590  0.00  0.00    -0.082 C 
ATOM      8  H2  <0> d          -0.575   2.856  -3.747  0.00  0.00     0.039 H 
ATOM      9  H3  <0> d          -0.319   1.326  -4.620  0.00  0.00     0.039 H 
ATOM     10  H4  <0> d           1.034   1.627  -2.449  0.00  0.00     0.037 H 
ATOM     11  H5  <0> d           0.087   0.121  -2.575  0.00  0.00     0.037 H 
ATOM     12  H6  <0> d          -3.794   0.907  -2.449  0.00  0.00     0.122 H 
ATOM     13  H7  <0> d          -2.800   1.532  -4.472  0.00  0.00     0.079 H 
ENDROOT
BRANCH   3  14
ATOM     14  C6  <0> d          -0.013   1.086   0.008  0.00  0.00     0.041 C 
ATOM     15  H8  <0> d           0.002  -0.004   0.002  0.00  0.00     0.077 H 
ATOM     16  H9  <0> d           1.010   1.463   0.000  0.00  0.00     0.077 H 
BRANCH  14  17
ATOM     17  O2  <0> d          -0.682   1.547   1.184  0.00  0.00    -0.398 OA
ATOM     18  H10 <0> d          -0.266   1.262   2.009  0.00  0.00     0.209 HD
ENDBRANCH  14  17
ENDBRANCH   3  14
TORSDOF 2
