REMARK  3 active torsions:
REMARK  status: ('A' for Active; 'I' for Inactive)
REMARK    1  A    between atoms: C2_2  and  C3_3 
REMARK    2  A    between atoms: C3_3  and  N1_4 
REMARK       I    between atoms: N1_4  and  C4_5 
REMARK    3  A    between atoms: C4_5  and  C5_7 
ROOT
ATOM      1  C1  <0> d          -3.618  -3.075   0.020  0.00  0.00    -0.152 C 
ATOM      2  C2  <0> d          -2.517  -2.668   0.012  0.00  0.00    -0.098 C 
ATOM      3  H1  <0> d          -4.603  -3.438   0.028  0.00  0.00     0.166 H 
ENDROOT
BRANCH   2   4
ATOM      4  C3  <0> d          -1.136  -2.159   0.001  0.00  0.00     0.050 C 
ATOM      5  H2  <0> d          -0.626  -2.510  -0.895  0.00  0.00     0.083 H 
ATOM      6  H3  <0> d          -0.609  -2.520   0.884  0.00  0.00     0.083 H 
BRANCH   4   7
ATOM      7  N1  <0> d          -1.156  -0.694   0.009  0.00  0.00    -0.347 N 
ATOM      8  C4  <0> d           0.002  -0.004   0.002  0.00  0.00     0.252 C 
ATOM      9  O1  <0> d           1.063  -0.597  -0.011  0.00  0.00    -0.268 OA
ATOM     10  H4  <0> d          -2.002  -0.220   0.020  0.00  0.00     0.163 HD
BRANCH   8  11
ATOM     11  C5  <0> d          -0.018   1.474   0.010  0.00  0.00     0.032 A 
ATOM     12  C10 <0> d           1.179   2.192   0.003  0.00  0.00    -0.068 A 
ATOM     13  C9  <0> d           1.154   3.571   0.010  0.00  0.00    -0.082 A 
ATOM     14  H9  <0> d           2.124   1.668  -0.009  0.00  0.00     0.085 H 
ATOM     15  C8  <0> d          -0.056   4.243   0.025  0.00  0.00    -0.083 A 
ATOM     16  H8  <0> d           2.079   4.127   0.004  0.00  0.00     0.083 H 
ATOM     17  C7  <0> d          -1.246   3.538   0.033  0.00  0.00    -0.082 A 
ATOM     18  H7  <0> d          -0.070   5.323   0.030  0.00  0.00     0.083 H 
ATOM     19  C6  <0> d          -1.234   2.159   0.020  0.00  0.00    -0.068 A 
ATOM     20  H6  <0> d          -2.187   4.069   0.044  0.00  0.00     0.083 H 
ATOM     21  H5  <0> d          -2.164   1.609   0.021  0.00  0.00     0.085 H 
ENDBRANCH   8  11
ENDBRANCH   4   7
ENDBRANCH   2   4
TORSDOF 3
