REMARK  3 active torsions:
REMARK  status: ('A' for Active; 'I' for Inactive)
REMARK    1  A    between atoms: C1_1  and  C2_2 
REMARK    2  A    between atoms: C3_3  and  C6_9 
REMARK    3  A    between atoms: C4_7  and  C5_8 
ROOT
ATOM      1  C2  <0> d          -0.718   1.572   1.248  0.00  0.00    -0.012 A 
ATOM      2  C3  <0> d          -0.138   1.839   2.441  0.00  0.00     0.032 A 
ATOM      3  N1  <0> d          -1.107   2.248   3.287  0.00  0.00    -0.282 N 
ATOM      4  H1  <0> d          -0.979   2.515   4.242  0.00  0.00     0.189 HD
ATOM      5  N2  <0> d          -2.322   2.232   2.591  0.00  0.00    -0.179 NA
ATOM      6  C4  <0> d          -2.087   1.833   1.367  0.00  0.00     0.058 A 
ENDROOT
BRANCH   1   7
ATOM      7  C1  <0> d          -0.013   1.086   0.008  0.00  0.00    -0.047 C 
ATOM      8  H2  <0> d           0.002  -0.004   0.002  0.00  0.00     0.033 H 
ATOM      9  H3  <0> d           1.010   1.463   0.000  0.00  0.00     0.033 H 
ATOM     10  H4  <0> d          -0.540   1.447  -0.875  0.00  0.00     0.033 H 
ENDBRANCH   1   7
BRANCH   6  11
ATOM     11  C5  <0> d          -3.115   1.676   0.276  0.00  0.00    -0.033 C 
ATOM     12  H5  <0> d          -3.522   0.666   0.303  0.00  0.00     0.035 H 
ATOM     13  H6  <0> d          -3.918   2.397   0.428  0.00  0.00     0.035 H 
ATOM     14  H7  <0> d          -2.646   1.853  -0.692  0.00  0.00     0.035 H 
ENDBRANCH   6  11
BRANCH   2  15
ATOM     15  C6  <0> d           1.327   1.702   2.767  0.00  0.00    -0.035 C 
ATOM     16  H8  <0> d           1.836   2.642   2.552  0.00  0.00     0.035 H 
ATOM     17  H9  <0> d           1.443   1.459   3.823  0.00  0.00     0.035 H 
ATOM     18  H10 <0> d           1.762   0.907   2.161  0.00  0.00     0.035 H 
ENDBRANCH   2  15
TORSDOF 3
