REMARK  2 active torsions:
REMARK  status: ('A' for Active; 'I' for Inactive)
REMARK    1  A    between atoms: C1_1  and  C2_2 
REMARK    2  A    between atoms: C3_3  and  N4_10 
ROOT
ATOM      1  C2  <0> d          -0.156   3.870   0.023  0.00  0.00     0.096 A 
ATOM      2  C3  <0> d           1.103   3.222   0.008  0.00  0.00     0.152 A 
ATOM      3  N1  <0> d           1.136   1.895   0.001  0.00  0.00    -0.173 NA
ATOM      4  C4  <0> d          -0.015   1.216   0.009  0.00  0.00     0.364 A 
ATOM      5  O1  <0> d           0.002  -0.004   0.002  0.00  0.00    -0.243 OA
ATOM      6  N2  <0> d          -1.191   1.867   0.018  0.00  0.00    -0.227 N 
ATOM      7  H1  <0> d          -2.134   1.300   0.015  0.00  0.00     0.194 HD
ATOM      8  N3  <0> d          -1.246   3.153   0.030  0.00  0.00    -0.172 NA
ENDROOT
BRANCH   1   9
ATOM      9  C1  <0> d          -0.236   5.374   0.032  0.00  0.00    -0.030 C 
ATOM     10  H2  <0> d           0.780   5.796   0.025  0.00  0.00     0.035 H 
ATOM     11  H3  <0> d          -0.765   5.708   0.937  0.00  0.00     0.035 H 
ATOM     12  H4  <0> d          -0.782   5.718  -0.859  0.00  0.00     0.035 H 
ENDBRANCH   1   9
BRANCH   2  13
ATOM     13  N4  <0> d           2.268   3.953   0.001  0.00  0.00    -0.382 N 
ATOM     14  H5  <0> d           3.240   3.438  -0.011  0.00  0.00     0.157 HD
ATOM     15  H6  <0> d           2.227   5.052   0.006  0.00  0.00     0.157 HD
ENDBRANCH   2  13
TORSDOF 2
