REMARK  5 active torsions:
REMARK  status: ('A' for Active; 'I' for Inactive)
REMARK    1  A    between atoms: C1_1  and  C2_2 
REMARK    2  A    between atoms: C2_2  and  C3_4 
REMARK    3  A    between atoms: C2_2  and  C6_7 
REMARK    4  A    between atoms: C3_4  and  C4_5 
REMARK    5  A    between atoms: C6_7  and  C7_9 
ROOT
ATOM      1  C2  <0> d           0.002  -0.004   0.002  0.00  0.00     0.003 C 
ATOM      2  H1  <0> d          -1.020  -0.381   0.010  0.00  0.00     0.051 H 
ENDROOT
BRANCH   1   3
ATOM      3  C1  <0> d          -0.019   1.526   0.010  0.00  0.00    -0.066 C 
ATOM      4  H2  <0> d           1.004   1.903   0.003  0.00  0.00     0.028 H 
ATOM      5  H3  <0> d          -0.546   1.887  -0.873  0.00  0.00     0.028 H 
ATOM      6  H4  <0> d          -0.529   1.877   0.907  0.00  0.00     0.028 H 
ENDBRANCH   1   3
BRANCH   1   7
ATOM      7  C3  <0> d           0.718  -0.497  -1.257  0.00  0.00    -0.041 C 
ATOM      8  H5  <0> d           1.710  -0.049  -1.310  0.00  0.00     0.040 H 
ATOM      9  H6  <0> d           0.812  -1.583  -1.220  0.00  0.00     0.040 H 
BRANCH   7  10
ATOM     10  C4  <0> d          -0.077  -0.103  -2.474  0.00  0.00    -0.111 C 
ATOM     11  C5  <0> d           0.491   0.587  -3.433  0.00  0.00    -0.125 C 
ATOM     12  H8  <0> d           1.529   0.872  -3.350  0.00  0.00     0.066 H 
ATOM     13  H9  <0> d          -0.079   0.869  -4.305  0.00  0.00     0.066 H 
ATOM     14  H7  <0> d          -1.115  -0.389  -2.557  0.00  0.00     0.075 H 
ENDBRANCH   7  10
ENDBRANCH   1   7
BRANCH   1  15
ATOM     15  C6  <0> d           0.731  -0.503   1.223  0.00  0.00     0.127 C 
ATOM     16  O1  <0> d           1.924  -0.688   1.181  0.00  0.00    -0.298 OA
BRANCH  15  17
ATOM     17  C7  <0> d          -0.029  -0.772   2.497  0.00  0.00    -0.021 C 
ATOM     18  H10 <0> d          -1.085  -0.549   2.344  0.00  0.00     0.037 H 
ATOM     19  H11 <0> d           0.086  -1.820   2.773  0.00  0.00     0.037 H 
ATOM     20  H12 <0> d           0.364  -0.141   3.294  0.00  0.00     0.037 H 
ENDBRANCH  15  17
ENDBRANCH   1  15
TORSDOF 5
