REMARK  2 active torsions:
REMARK  status: ('A' for Active; 'I' for Inactive)
REMARK    1  A    between atoms: C3_3  and  C4_4 
REMARK    2  A    between atoms: C4_4  and  C5_6 
ROOT
ATOM      1  C4  <0> d          -0.014   1.203   0.009  0.00  0.00     0.135 C 
ATOM      2  O1  <0> d           0.002  -0.004   0.002  0.00  0.00    -0.297 OA
ENDROOT
BRANCH   1   3
ATOM      3  C3  <0> d           1.280   1.975   0.000  0.00  0.00     0.004 A 
ATOM      4  C1  <0> d           2.380   1.499  -0.951  0.00  0.00    -0.055 A 
ATOM      5  C2  <0> d           2.523   1.276   0.556  0.00  0.00    -0.055 A 
ATOM      6  H1  <0> d           2.167   0.628  -1.571  0.00  0.00     0.034 H 
ATOM      7  H2  <0> d           3.013   2.259  -1.409  0.00  0.00     0.034 H 
ATOM      8  H3  <0> d           3.249   1.889   1.090  0.00  0.00     0.034 H 
ATOM      9  H4  <0> d           2.403   0.258   0.929  0.00  0.00     0.034 H 
ATOM     10  H5  <0> d           1.098   2.945  -0.160  0.00  0.00     0.051 H 
ENDBRANCH   1   3
BRANCH   1  11
ATOM     11  C5  <0> d          -1.329   1.939   0.019  0.00  0.00     0.004 A 
ATOM     12  C7  <0> d          -2.550   1.213  -0.551  0.00  0.00    -0.055 A 
ATOM     13  C6  <0> d          -2.420   1.423   0.960  0.00  0.00    -0.055 A 
ATOM     14  H9  <0> d          -3.290   1.812  -1.081  0.00  0.00     0.034 H 
ATOM     15  H10 <0> d          -2.401   0.203  -0.934  0.00  0.00     0.034 H 
ATOM     16  H7  <0> d          -2.187   0.552   1.571  0.00  0.00     0.034 H 
ATOM     17  H8  <0> d          -3.075   2.161   1.423  0.00  0.00     0.034 H 
ATOM     18  H6  <0> d          -1.167   2.914  -0.131  0.00  0.00     0.051 H 
ENDBRANCH   1  11
TORSDOF 2
