REMARK  0 active torsions:
REMARK  status: ('A' for Active; 'I' for Inactive)
ROOT
ATOM      1  C1  <0> d          -0.017   1.400   0.010  0.00  0.00    -0.076 A 
ATOM      2  C2  <0> d           1.156   2.090   0.002  0.00  0.00    -0.038 A 
ATOM      3  C3  <0> d           2.374   1.382  -0.013  0.00  0.00     0.134 A 
ATOM      4  N1  <0> d           3.638   1.781  -0.023  0.00  0.00    -0.241 NA
ATOM      5  C4  <0> d           4.436   0.710  -0.036  0.00  0.00     0.020 A 
ATOM      6  C5  <0> d           3.667  -0.401  -0.035  0.00  0.00     0.005 A 
ATOM      7  N2  <0> d           2.362   0.011  -0.020  0.00  0.00    -0.295 N 
ATOM      8  C6  <0> d           1.178  -0.670  -0.013  0.00  0.00     0.111 A 
ATOM      9  C7  <0> d           0.002  -0.004   0.002  0.00  0.00    -0.045 A 
ATOM     10 Cl1  <0> d           1.185  -2.406  -0.022  0.00  0.00    -0.064 Cl
ATOM     11  H1  <0> d          -0.958   1.929   0.026  0.00  0.00     0.083 H 
ATOM     12  H2  <0> d           1.153   3.170   0.008  0.00  0.00     0.089 H 
ATOM     13  H3  <0> d           5.516   0.729  -0.047  0.00  0.00     0.117 H 
ATOM     14  H4  <0> d           4.017  -1.422  -0.044  0.00  0.00     0.114 H 
ATOM     15  H5  <0> d          -0.927  -0.554   0.008  0.00  0.00     0.088 H 
ENDROOT
TORSDOF 0
