REMARK  2 active torsions:
REMARK  status: ('A' for Active; 'I' for Inactive)
REMARK    1  A    between atoms: C1_1  and  O1_2 
REMARK    2  A    between atoms: O1_2  and  C2_3 
ROOT
ATOM      1  C2  <0> d           0.604  -0.605  -1.053  0.00  0.00     0.270 A 
ATOM      2  N1  <0> d           1.139   0.144  -2.002  0.00  0.00    -0.216 NA
ATOM      3  C3  <0> d           1.735  -0.408  -3.048  0.00  0.00     0.048 A 
ATOM      4  C4  <0> d           1.795  -1.790  -3.140  0.00  0.00     0.191 A 
ATOM      5  C5  <0> d           1.222  -2.547  -2.123  0.00  0.00     0.253 A 
ATOM      6  N2  <0> d           0.646  -1.927  -1.103  0.00  0.00    -0.175 NA
ATOM      7  F1  <0> d           1.258  -3.897  -2.171  0.00  0.00    -0.181 F 
ATOM      8  F2  <0> d           2.396  -2.387  -4.192  0.00  0.00    -0.200 F 
ATOM      9  H4  <0> d           2.169   0.210  -3.819  0.00  0.00     0.120 H 
ENDROOT
BRANCH   1  10
ATOM     10  O1  <0> d           0.002  -0.004   0.002  0.00  0.00    -0.324 OA
BRANCH  10  11
ATOM     11  C1  <0> d          -0.017   1.425   0.010  0.00  0.00     0.013 C 
ATOM     12  H1  <0> d           1.005   1.802   0.002  0.00  0.00     0.067 H 
ATOM     13  H2  <0> d          -0.544   1.786  -0.873  0.00  0.00     0.067 H 
ATOM     14  H3  <0> d          -0.527   1.776   0.907  0.00  0.00     0.067 H 
ENDBRANCH  10  11
ENDBRANCH   1  10
TORSDOF 2
