REMARK  2 active torsions:
REMARK  status: ('A' for Active; 'I' for Inactive)
REMARK    1  A    between atoms: C2_2  and  C7_10 
REMARK    2  A    between atoms: C7_10  and  O2_11 
ROOT
ATOM      1  C1  <0> d          -0.016   1.348   0.009  0.00  0.00    -0.005 A 
ATOM      2  C2  <0> d           1.312   1.792  -0.001  0.00  0.00     0.082 A 
ATOM      3  N1  <0> d           2.098   0.743  -0.014  0.00  0.00    -0.173 NA
ATOM      4  N2  <0> d           1.300  -0.399  -0.011  0.00  0.00    -0.248 N 
ATOM      5  C3  <0> d           0.002  -0.004   0.002  0.00  0.00     0.162 A 
ATOM      6  O1  <0> d          -1.047  -0.869   0.004  0.00  0.00    -0.335 OA
ATOM      7  C4  <0> d          -0.721  -2.219  -0.357  0.00  0.00     0.029 C 
ATOM      8  C5  <0> d           0.526  -2.662   0.417  0.00  0.00    -0.028 C 
ATOM      9  C6  <0> d           1.723  -1.804  -0.018  0.00  0.00     0.021 C 
ATOM     10  H1  <0> d          -0.897   1.973   0.025  0.00  0.00     0.093 H 
ATOM     11  H2  <0> d          -1.555  -2.874  -0.108  0.00  0.00     0.075 H 
ATOM     12  H3  <0> d          -0.522  -2.272  -1.427  0.00  0.00     0.075 H 
ATOM     13  H4  <0> d           0.355  -2.533   1.486  0.00  0.00     0.038 H 
ATOM     14  H5  <0> d           0.733  -3.710   0.204  0.00  0.00     0.038 H 
ATOM     15  H6  <0> d           2.035  -2.089  -1.022  0.00  0.00     0.067 H 
ATOM     16  H7  <0> d           2.549  -1.943   0.680  0.00  0.00     0.067 H 
ENDROOT
BRANCH   2  17
ATOM     17  C7  <0> d           1.761   3.231   0.002  0.00  0.00     0.058 C 
ATOM     18  H8  <0> d           2.368   3.421   0.887  0.00  0.00     0.083 H 
ATOM     19  H9  <0> d           2.351   3.429  -0.893  0.00  0.00     0.083 H 
BRANCH  17  20
ATOM     20  O2  <0> d           0.616   4.087   0.016  0.00  0.00    -0.395 OA
ATOM     21  H10 <0> d           0.831   5.030   0.019  0.00  0.00     0.209 HD
ENDBRANCH  17  20
ENDBRANCH   2  17
TORSDOF 2
