REMARK  5 active torsions:
REMARK  status: ('A' for Active; 'I' for Inactive)
REMARK    1  A    between atoms: C1_1  and  C2_2 
REMARK    2  A    between atoms: C2_2  and  C3_4 
REMARK    3  A    between atoms: C2_2  and  O3_7 
REMARK    4  A    between atoms: O3_7  and  C4_8 
REMARK    5  A    between atoms: C4_8  and  C5_9 
ROOT
ATOM      1  C4  <0> d          -0.019   1.526   0.010  0.00  0.00     0.024 C 
ATOM      2  H5  <0> d          -0.551   1.890  -0.881  0.00  0.00     0.074 H 
ATOM      3  H6  <0> d           1.013   1.907   0.003  0.00  0.00     0.074 H 
ENDROOT
BRANCH   1   4
ATOM      4  O3  <0> d          -0.688   1.987   1.186  0.00  0.00    -0.375 OA
BRANCH   4   5
ATOM      5  C2  <0> d          -0.762   3.410   1.292  0.00  0.00     0.118 C 
ATOM      6  H1  <0> d          -0.805   3.793   0.262  0.00  0.00     0.099 H 
BRANCH   5   7
ATOM      7  C1  <0> d           0.467   3.931   2.039  0.00  0.00    -0.043 C 
ATOM      8  H2  <0> d           1.377   3.651   1.488  0.00  0.00     0.031 H 
ATOM      9  H3  <0> d           0.498   3.489   3.046  0.00  0.00     0.031 H 
ATOM     10  H4  <0> d           0.409   5.026   2.121  0.00  0.00     0.031 H 
ENDBRANCH   5   7
BRANCH   5  11
ATOM     11  C3  <0> d          -2.009   3.792   2.048  0.00  0.00     0.202 C 
ATOM     12  O1  <0> d          -2.709   2.935   2.532  0.00  0.00    -0.646 OA
ATOM     13  O2  <0> d          -2.341   5.086   2.183  0.00  0.00    -0.646 OA
ENDBRANCH   5  11
ENDBRANCH   4   5
ENDBRANCH   1   4
BRANCH   1  14
ATOM     14  C5  <0> d           0.002  -0.004   0.002  0.00  0.00    -0.033 A 
ATOM     15  C7  <0> d           0.573  -0.696  -1.237  0.00  0.00    -0.059 A 
ATOM     16  C6  <0> d           1.367  -0.693   0.071  0.00  0.00    -0.059 A 
ATOM     17  H10 <0> d          -0.111  -1.494  -1.560  0.00  0.00     0.033 H 
ATOM     18  H11 <0> d           0.687   0.039  -2.048  0.00  0.00     0.033 H 
ATOM     19  H8  <0> d           2.136   0.045   0.342  0.00  0.00     0.033 H 
ATOM     20  H9  <0> d           1.338  -1.488   0.830  0.00  0.00     0.033 H 
ATOM     21  H7  <0> d          -0.936  -0.077   0.571  0.00  0.00     0.043 H 
ENDBRANCH   1  14
TORSDOF 5
