REMARK  4 active torsions:
REMARK  status: ('A' for Active; 'I' for Inactive)
REMARK    1  A    between atoms: C1_1  and  C2_2 
REMARK    2  A    between atoms: C5_5  and  N1_8 
REMARK    3  A    between atoms: N1_8  and  C8_9 
REMARK    4  A    between atoms: C8_9  and  C9_10 
ROOT
ATOM      1  C9  <0> d           2.273  -4.240  -0.042  0.00  0.00    -0.098 C 
ATOM      2  C10 <0> d           2.077  -5.398  -0.045  0.00  0.00    -0.152 C 
ATOM      3  H11 <0> d           1.902  -6.433  -0.049  0.00  0.00     0.166 H 
ENDROOT
BRANCH   1   4
ATOM      4  C8  <0> d           2.518  -2.789  -0.037  0.00  0.00     0.047 C 
ATOM      5  H9  <0> d           3.077  -2.512  -0.931  0.00  0.00     0.083 H 
ATOM      6  H10 <0> d           3.094  -2.521   0.849  0.00  0.00     0.083 H 
BRANCH   4   7
ATOM      7  N1  <0> d           1.238  -2.077  -0.021  0.00  0.00    -0.380 N 
ATOM      8  H8  <0> d           0.406  -2.576  -0.015  0.00  0.00     0.160 HD
BRANCH   7   9
ATOM      9  C5  <0> d           1.215  -0.681  -0.013  0.00  0.00     0.028 A 
ATOM     10  C4  <0> d           0.002  -0.004   0.002  0.00  0.00    -0.057 A 
ATOM     11  C3  <0> d          -0.017   1.377   0.010  0.00  0.00    -0.075 A 
ATOM     12  H5  <0> d          -0.925  -0.557   0.008  0.00  0.00     0.086 H 
ATOM     13  C2  <0> d           1.171   2.086   0.002  0.00  0.00    -0.062 A 
ATOM     14  H4  <0> d          -0.960   1.903   0.017  0.00  0.00     0.084 H 
ATOM     15  C7  <0> d           2.380   1.416  -0.013  0.00  0.00    -0.075 A 
ATOM     16  C6  <0> d           2.406   0.035  -0.021  0.00  0.00    -0.057 A 
ATOM     17  H7  <0> d           3.305   1.973  -0.019  0.00  0.00     0.084 H 
ATOM     18  H6  <0> d           3.351  -0.488  -0.032  0.00  0.00     0.086 H 
BRANCH  13  19
ATOM     19  C1  <0> d           1.146   3.593   0.010  0.00  0.00    -0.051 C 
ATOM     20  H1  <0> d           1.150   3.951   1.040  0.00  0.00     0.033 H 
ATOM     21  H2  <0> d           2.025   3.973  -0.510  0.00  0.00     0.033 H 
ATOM     22  H3  <0> d           0.246   3.944  -0.494  0.00  0.00     0.033 H 
ENDBRANCH  13  19
ENDBRANCH   7   9
ENDBRANCH   4   7
ENDBRANCH   1   4
TORSDOF 4
