REMARK  4 active torsions:
REMARK  status: ('A' for Active; 'I' for Inactive)
REMARK    1  A    between atoms: C1_1  and  N1_2 
REMARK    2  A    between atoms: C1_1  and  O2_9 
REMARK    3  A    between atoms: N1_2  and  C2_3 
REMARK    4  A    between atoms: C3_4  and  N4_8 
ROOT
ATOM      1  C2  <0> d          -1.632   0.745   1.846  0.00  0.00     0.203 A 
ATOM      2  C3  <0> d          -2.391   1.087   3.055  0.00  0.00     0.199 A 
ATOM      3  N2  <0> d          -3.165   0.080   3.351  0.00  0.00    -0.083 NA
ATOM      4  O1  <0> d          -2.954  -0.931   2.381  0.00  0.00    -0.103 OA
ATOM      5  N3  <0> d          -1.987  -0.450   1.464  0.00  0.00    -0.083 NA
ENDROOT
BRANCH   1   6
ATOM      6  N1  <0> d          -0.698   1.558   1.213  0.00  0.00    -0.349 N 
ATOM      7  H3  <0> d          -0.501   2.438   1.570  0.00  0.00     0.163 HD
BRANCH   6   8
ATOM      8  C1  <0> d          -0.013   1.086   0.008  0.00  0.00     0.076 C 
ATOM      9  H1  <0> d           0.002  -0.004   0.002  0.00  0.00     0.106 H 
ATOM     10  H2  <0> d           1.010   1.463   0.000  0.00  0.00     0.106 H 
BRANCH   8  11
ATOM     11  O2  <0> d          -0.704   1.559  -1.150  0.00  0.00    -0.382 OA
ATOM     12  H6  <0> d          -0.304   1.284  -1.986  0.00  0.00     0.211 HD
ENDBRANCH   8  11
ENDBRANCH   6   8
ENDBRANCH   1   6
BRANCH   2  13
ATOM     13  N4  <0> d          -2.299   2.280   3.763  0.00  0.00    -0.379 N 
ATOM     14  H4  <0> d          -1.692   2.975   3.466  0.00  0.00     0.158 HD
ATOM     15  H5  <0> d          -2.843   2.417   4.555  0.00  0.00     0.158 HD
ENDBRANCH   2  13
TORSDOF 4
