REMARK  1 active torsions:
REMARK  status: ('A' for Active; 'I' for Inactive)
REMARK    1  A    between atoms: C5_8  and  C6_9 
ROOT
ATOM      1  C1  <0> d          -0.019   1.540   0.011  0.00  0.00    -0.056 C 
ATOM      2  C2  <0> d           1.483   1.897  -0.002  0.00  0.00    -0.036 C 
ATOM      3  C3  <0> d           2.176   0.715   0.629  0.00  0.00     0.003 A 
ATOM      4  C4  <0> d           1.322  -0.388   0.634  0.00  0.00     0.063 A 
ATOM      5  N1  <0> d           1.965  -1.385   1.191  0.00  0.00    -0.178 NA
ATOM      6  N2  <0> d           3.148  -1.030   1.543  0.00  0.00    -0.271 N 
ATOM      7  H1  <0> d           3.820  -1.624   1.986  0.00  0.00     0.189 HD
ATOM      8  C5  <0> d           3.348   0.282   1.218  0.00  0.00     0.135 A 
ATOM      9  C7  <0> d           0.002  -0.004   0.002  0.00  0.00    -0.022 C 
ATOM     10  H2  <0> d          -0.515   1.925  -0.880  0.00  0.00     0.034 H 
ATOM     11  H3  <0> d          -0.498   1.915   0.915  0.00  0.00     0.034 H 
ATOM     12  H4  <0> d           1.831   2.037  -1.026  0.00  0.00     0.040 H 
ATOM     13  H5  <0> d           1.663   2.798   0.585  0.00  0.00     0.040 H 
ATOM     14  H6  <0> d          -0.827  -0.397   0.591  0.00  0.00     0.042 H 
ATOM     15  H7  <0> d          -0.051  -0.377  -1.021  0.00  0.00     0.042 H 
ENDROOT
BRANCH   8  16
ATOM     16  C6  <0> d           4.565   1.074   1.449  0.00  0.00     0.229 C 
ATOM     17  O1  <0> d           4.606   2.240   1.108  0.00  0.00    -0.643 OA
ATOM     18  O2  <0> d           5.636   0.507   2.040  0.00  0.00    -0.643 OA
ENDBRANCH   8  16
TORSDOF 1
