REMARK  1 active torsions:
REMARK  status: ('A' for Active; 'I' for Inactive)
REMARK    1  A    between atoms: C3_4  and  C5_7 
ROOT
ATOM      1  C1  <0> d          -0.016   1.317   0.009  0.00  0.00     0.019 A 
ATOM      2  C2  <0> d           1.173   2.025   0.002  0.00  0.00     0.020 A 
ATOM      3  N1  <0> d           2.326   1.380  -0.013  0.00  0.00    -0.254 NA
ATOM      4  C3  <0> d           2.344   0.059  -0.020  0.00  0.00     0.157 A 
ATOM      5  C4  <0> d           1.155  -0.649  -0.013  0.00  0.00     0.034 A 
ATOM      6  N2  <0> d           0.002  -0.004   0.002  0.00  0.00    -0.269 NA
ATOM      7  H1  <0> d          -0.958   1.844   0.026  0.00  0.00     0.117 H 
ATOM      8  H2  <0> d           1.159   3.105   0.007  0.00  0.00     0.117 H 
ATOM      9  H3  <0> d           1.170  -1.729  -0.018  0.00  0.00     0.118 H 
ENDROOT
BRANCH   4  10
ATOM     10  C5  <0> d           3.659  -0.677  -0.037  0.00  0.00     0.435 C 
ATOM     11  F1  <0> d           4.709   0.241   0.072  0.00  0.00    -0.165 F 
ATOM     12  F2  <0> d           3.707  -1.571   1.038  0.00  0.00    -0.165 F 
ATOM     13  F3  <0> d           3.782  -1.385  -1.238  0.00  0.00    -0.165 F 
ENDBRANCH   4  10
TORSDOF 1
