REMARK  0 active torsions:
REMARK  status: ('A' for Active; 'I' for Inactive)
ROOT
ATOM      1  C1  <0> d           2.222   0.839  -0.015  0.00  0.00     0.119 A 
ATOM      2  C2  <0> d           1.395  -0.472  -0.014  0.00  0.00     0.119 A 
ATOM      3  N1  <0> d           0.002  -0.004   0.002  0.00  0.00    -0.318 N 
ATOM      4  C3  <0> d          -0.016   1.335   0.009  0.00  0.00     0.319 A 
ATOM      5  O1  <0> d          -1.044   1.983   0.018  0.00  0.00    -0.247 OA
ATOM      6  N2  <0> d           1.200   1.895   0.001  0.00  0.00    -0.318 N 
ATOM      7  N3  <0> d           1.724  -1.089   1.279  0.00  0.00    -0.318 N 
ATOM      8  C4  <0> d           2.586  -0.305   1.938  0.00  0.00     0.319 A 
ATOM      9  O2  <0> d           3.024  -0.581   3.039  0.00  0.00    -0.247 OA
ATOM     10  N4  <0> d           2.922   0.810   1.277  0.00  0.00    -0.318 N 
ATOM     11  H1  <0> d           2.896   0.917  -0.868  0.00  0.00     0.113 H 
ATOM     12  H2  <0> d           1.615  -1.114  -0.866  0.00  0.00     0.113 H 
ATOM     13  H3  <0> d          -0.782  -0.576   0.007  0.00  0.00     0.166 HD
ATOM     14  H4  <0> d           1.378   2.848   0.004  0.00  0.00     0.166 HD
ATOM     15  H5  <0> d           1.372  -1.933   1.604  0.00  0.00     0.166 HD
ATOM     16  H6  <0> d           3.533   1.491   1.600  0.00  0.00     0.166 HD
ENDROOT
TORSDOF 0
