REMARK  0 active torsions:
REMARK  status: ('A' for Active; 'I' for Inactive)
ROOT
ATOM      1  C1  <0> d          -0.019   1.526   0.010  0.00  0.00    -0.065 C 
ATOM      2  C2  <0> d           1.416   2.058  -0.000  0.00  0.00    -0.063 C 
ATOM      3  C3  <0> d           2.152   1.562   1.247  0.00  0.00    -0.040 C 
ATOM      4  C4  <0> d           2.151   0.040   1.268  0.00  0.00     0.057 C 
ATOM      5  C5  <0> d           0.731  -0.510   1.250  0.00  0.00    -0.040 C 
ATOM      6  C6  <0> d           0.002  -0.004   0.002  0.00  0.00    -0.063 C 
ATOM      7  C7  <0> d           2.913  -0.482   2.502  0.00  0.00     0.054 C 
ATOM      8  O1  <0> d           4.233  -0.703   1.964  0.00  0.00    -0.302 OA
ATOM      9  C8  <0> d           4.113  -0.926   0.644  0.00  0.00     0.361 C 
ATOM     10  O2  <0> d           4.974  -1.456  -0.030  0.00  0.00    -0.238 OA
ATOM     11  N1  <0> d           2.934  -0.499   0.147  0.00  0.00    -0.326 N 
ATOM     12  H1  <0> d          -0.529   1.877   0.907  0.00  0.00     0.033 H 
ATOM     13  H2  <0> d          -0.546   1.887  -0.872  0.00  0.00     0.033 H 
ATOM     14  H3  <0> d           1.930   1.699  -0.892  0.00  0.00     0.033 H 
ATOM     15  H4  <0> d           1.399   3.148  -0.004  0.00  0.00     0.033 H 
ATOM     16  H5  <0> d           3.180   1.924   1.231  0.00  0.00     0.036 H 
ATOM     17  H6  <0> d           1.649   1.937   2.139  0.00  0.00     0.036 H 
ATOM     18  H7  <0> d           0.763  -1.599   1.235  0.00  0.00     0.036 H 
ATOM     19  H8  <0> d           0.201  -0.174   2.141  0.00  0.00     0.036 H 
ATOM     20  H9  <0> d          -1.020  -0.382   0.001  0.00  0.00     0.033 H 
ATOM     21  H10 <0> d           0.521  -0.356  -0.890  0.00  0.00     0.033 H 
ATOM     22  H11 <0> d           2.936   0.269   3.292  0.00  0.00     0.079 H 
ATOM     23  H12 <0> d           2.478  -1.413   2.864  0.00  0.00     0.079 H 
ATOM     24  H13 <0> d           2.655  -0.539  -0.781  0.00  0.00     0.165 HD
ENDROOT
TORSDOF 0
