REMARK  1 active torsions:
REMARK  status: ('A' for Active; 'I' for Inactive)
REMARK    1  A    between atoms: C1_1  and  N1_2 
ROOT
ATOM      1  N1  <0> d          -0.018   1.461   0.010  0.00  0.00    -0.356 N 
ATOM      2  C2  <0> d          -1.315   2.126   0.020  0.00  0.00    -0.003 C 
ATOM      3  C3  <0> d          -1.168   3.573   0.501  0.00  0.00    -0.050 C 
ATOM      4  C4  <0> d          -0.058   4.247  -0.314  0.00  0.00    -0.056 C 
ATOM      5  C5  <0> d           1.278   3.597   0.058  0.00  0.00     0.009 C 
ATOM      6  C6  <0> d           1.152   2.102   0.002  0.00  0.00     0.219 C 
ATOM      7  O1  <0> d           2.167   1.442  -0.053  0.00  0.00    -0.273 OA
ATOM      8  H4  <0> d          -1.734   2.127  -0.997  0.00  0.00     0.064 H 
ATOM      9  H5  <0> d          -1.996   1.591   0.697  0.00  0.00     0.064 H 
ATOM     10  H6  <0> d          -2.119   4.106   0.353  0.00  0.00     0.035 H 
ATOM     11  H7  <0> d          -0.906   3.579   1.569  0.00  0.00     0.035 H 
ATOM     12  H8  <0> d          -0.256   4.110  -1.388  0.00  0.00     0.033 H 
ATOM     13  H9  <0> d          -0.031   5.321  -0.080  0.00  0.00     0.033 H 
ATOM     14  H10 <0> d           2.054   3.922  -0.651  0.00  0.00     0.047 H 
ATOM     15  H11 <0> d           1.562   3.900   1.077  0.00  0.00     0.047 H 
ENDROOT
BRANCH   1  16
ATOM     16  C1  <0> d           0.002  -0.004   0.002  0.00  0.00    -0.016 C 
ATOM     17  H1  <0> d          -1.030  -0.385   0.010  0.00  0.00     0.056 H 
ATOM     18  H2  <0> d           0.534  -0.368   0.893  0.00  0.00     0.056 H 
ATOM     19  H3  <0> d           0.517  -0.359  -0.903  0.00  0.00     0.056 H 
ENDBRANCH   1  16
TORSDOF 1
