REMARK  2 active torsions:
REMARK  status: ('A' for Active; 'I' for Inactive)
REMARK    1  A    between atoms: C1_1  and  O1_2 
REMARK    2  A    between atoms: O1_2  and  C2_3 
ROOT
ATOM      1  C2  <0> d          -0.729   1.579   1.267  0.00  0.00     0.038 C 
ATOM      2  C3  <0> d          -0.013   1.086   0.008  0.00  0.00    -0.041 C 
ATOM      3  C4  <0> d          -0.753   1.593  -1.232  0.00  0.00    -0.063 C 
ATOM      4  C5  <0> d          -0.773   3.123  -1.223  0.00  0.00    -0.065 C 
ATOM      5  C6  <0> d          -1.490   3.616   0.036  0.00  0.00    -0.063 C 
ATOM      6  C7  <0> d          -0.750   3.109   1.275  0.00  0.00    -0.041 C 
ATOM      7  H4  <0> d          -1.746   1.166   1.335  0.00  0.00     0.083 H 
ATOM      8  H5  <0> d           1.019   1.466   0.000  0.00  0.00     0.036 H 
ATOM      9  H6  <0> d           0.002  -0.014   0.002  0.00  0.00     0.036 H 
ATOM     10  H7  <0> d          -0.238   1.238  -2.136  0.00  0.00     0.033 H 
ATOM     11  H8  <0> d          -1.785   1.212  -1.224  0.00  0.00     0.033 H 
ATOM     12  H9  <0> d           0.259   3.503  -1.231  0.00  0.00     0.033 H 
ATOM     13  H10 <0> d          -1.305   3.487  -2.114  0.00  0.00     0.033 H 
ATOM     14  H11 <0> d          -1.505   4.716   0.042  0.00  0.00     0.033 H 
ATOM     15  H12 <0> d          -2.522   3.235   0.043  0.00  0.00     0.033 H 
ATOM     16  H13 <0> d          -1.264   3.464   2.180  0.00  0.00     0.036 H 
ATOM     17  H14 <0> d           0.282   3.490   1.267  0.00  0.00     0.036 H 
ENDROOT
BRANCH   1  18
ATOM     18  O1  <0> d          -0.038   1.106   2.425  0.00  0.00    -0.391 OA
BRANCH  18  19
ATOM     19  C1  <0> d          -0.881   0.894   3.559  0.00  0.00     0.004 C 
ATOM     20  H1  <0> d          -0.276   0.532   4.403  0.00  0.00     0.066 H 
ATOM     21  H2  <0> d          -1.648   0.147   3.311  0.00  0.00     0.066 H 
ATOM     22  H3  <0> d          -1.367   1.841   3.836  0.00  0.00     0.066 H 
ENDBRANCH  18  19
ENDBRANCH   1  18
TORSDOF 2
