REMARK  0 active torsions:
REMARK  status: ('A' for Active; 'I' for Inactive)
ROOT
ATOM      1  C1  <0> d          -0.018   1.464   0.010  0.00  0.00    -0.031 A 
ATOM      2  C2  <0> d           1.264   1.857  -0.000  0.00  0.00     0.022 A 
ATOM      3  O1  <0> d           2.076   0.786  -0.013  0.00  0.00    -0.320 OA
ATOM      4  C3  <0> d           1.363  -0.356  -0.013  0.00  0.00     0.105 A 
ATOM      5  C4  <0> d           0.002  -0.004   0.002  0.00  0.00     0.092 A 
ATOM      6  N1  <0> d          -0.939  -0.940   0.006  0.00  0.00    -0.257 NA
ATOM      7  C5  <0> d          -0.633  -2.220  -0.005  0.00  0.00     0.024 A 
ATOM      8  C6  <0> d           0.689  -2.641  -0.019  0.00  0.00     0.054 A 
ATOM      9  C7  <0> d           1.707  -1.703  -0.023  0.00  0.00    -0.026 A 
ATOM     10 Cl1  <0> d           1.064  -4.336  -0.031  0.00  0.00    -0.083 Cl
ATOM     11  H1  <0> d          -0.890   2.100   0.026  0.00  0.00     0.090 H 
ATOM     12  H2  <0> d           1.595   2.885   0.002  0.00  0.00     0.123 H 
ATOM     13  H3  <0> d          -1.424  -2.955  -0.001  0.00  0.00     0.117 H 
ATOM     14  H4  <0> d           2.743  -2.010  -0.035  0.00  0.00     0.090 H 
ENDROOT
TORSDOF 0
