REMARK  5 active torsions:
REMARK  status: ('A' for Active; 'I' for Inactive)
REMARK    1  A    between atoms: C1_1  and  C2_2 
REMARK    2  A    between atoms: C2_2  and  C3_3 
REMARK    3  A    between atoms: C3_3  and  C4_4 
REMARK    4  A    between atoms: C4_4  and  C5_5 
REMARK    5  A    between atoms: C7_8  and  C8_10 
ROOT
ATOM      1  C4  <0> d          -0.448   2.233  -1.276  0.00  0.00    -0.061 C 
ATOM      2  H10 <0> d           0.338   2.918  -1.594  0.00  0.00     0.033 H 
ATOM      3  H11 <0> d          -0.623   1.493  -2.057  0.00  0.00     0.033 H 
ENDROOT
BRANCH   1   4
ATOM      4  C3  <0> d          -1.736   3.019  -1.020  0.00  0.00    -0.065 C 
ATOM      5  H8  <0> d          -2.522   2.334  -0.702  0.00  0.00     0.033 H 
ATOM      6  H9  <0> d          -1.561   3.759  -0.239  0.00  0.00     0.033 H 
BRANCH   4   7
ATOM      7  C2  <0> d          -2.166   3.727  -2.307  0.00  0.00    -0.069 C 
ATOM      8  H6  <0> d          -1.380   4.412  -2.625  0.00  0.00     0.032 H 
ATOM      9  H7  <0> d          -2.341   2.987  -3.088  0.00  0.00     0.032 H 
BRANCH   7  10
ATOM     10  C1  <0> d          -3.454   4.512  -2.051  0.00  0.00    -0.077 C 
ATOM     11  H3  <0> d          -4.240   3.827  -1.733  0.00  0.00     0.027 H 
ATOM     12  H4  <0> d          -3.279   5.252  -1.270  0.00  0.00     0.027 H 
ATOM     13  H5  <0> d          -3.760   5.016  -2.968  0.00  0.00     0.027 H 
ENDBRANCH   7  10
ENDBRANCH   4   7
ENDBRANCH   1   4
BRANCH   1  14
ATOM     14  C5  <0> d          -0.019   1.526   0.010  0.00  0.00    -0.040 A 
ATOM     15  H1  <0> d          -0.307   2.020   0.938  0.00  0.00     0.041 H 
ATOM     16  C7  <0> d           1.317   0.779  -0.006  0.00  0.00     0.034 A 
ATOM     17  C6  <0> d           0.002  -0.004   0.002  0.00  0.00    -0.048 A 
ATOM     18  H2  <0> d           1.906   0.782   0.910  0.00  0.00     0.057 H 
ATOM     19  H12 <0> d          -0.273  -0.516   0.924  0.00  0.00     0.035 H 
ATOM     20  H13 <0> d          -0.290  -0.506  -0.920  0.00  0.00     0.035 H 
BRANCH  16  21
ATOM     21  C8  <0> d           2.108   0.797  -1.289  0.00  0.00     0.177 C 
ATOM     22  O1  <0> d           1.681   1.386  -2.253  0.00  0.00    -0.648 OA
ATOM     23  O2  <0> d           3.286   0.158  -1.359  0.00  0.00    -0.648 OA
ENDBRANCH  16  21
ENDBRANCH   1  14
TORSDOF 5
