REMARK  2 active torsions:
REMARK  status: ('A' for Active; 'I' for Inactive)
REMARK    1  A    between atoms: C3_3  and  C6_8 
REMARK    2  A    between atoms: C5_6  and  N2_7 
ROOT
ATOM      1  C1  <0> d          -2.427   0.940   0.019  0.00  0.00    -0.054 A 
ATOM      2  C2  <0> d          -3.610   1.655   0.028  0.00  0.00    -0.046 A 
ATOM      3  C3  <0> d          -3.560   3.050   0.035  0.00  0.00     0.132 A 
ATOM      4  N1  <0> d          -2.394   3.688   0.033  0.00  0.00    -0.252 NA
ATOM      5  C4  <0> d          -1.253   3.040   0.030  0.00  0.00     0.028 A 
ATOM      6  C5  <0> d          -1.224   1.645   0.017  0.00  0.00     0.043 A 
ATOM      7  H1  <0> d          -2.435  -0.141   0.013  0.00  0.00     0.087 H 
ATOM      8  H2  <0> d          -4.560   1.142   0.029  0.00  0.00     0.087 H 
ATOM      9  H3  <0> d          -0.325   3.592   0.034  0.00  0.00     0.118 H 
ENDROOT
BRANCH   3  10
ATOM     10  C6  <0> d          -4.817   3.825   0.046  0.00  0.00     0.228 C 
ATOM     11  O1  <0> d          -5.887   3.249   0.048  0.00  0.00    -0.643 OA
ATOM     12  O2  <0> d          -4.778   5.172   0.053  0.00  0.00    -0.643 OA
ENDBRANCH   3  10
BRANCH   6  13
ATOM     13  N2  <0> d          -0.011   0.966   0.007  0.00  0.00    -0.398 N 
ATOM     14  H4  <0> d           0.002  -0.004   0.002  0.00  0.00     0.156 HD
ATOM     15  H5  <0> d           0.822   1.462   0.002  0.00  0.00     0.156 HD
ENDBRANCH   6  13
TORSDOF 2
