REMARK  2 active torsions:
REMARK  status: ('A' for Active; 'I' for Inactive)
REMARK    1  A    between atoms: C1_1  and  C2_2 
REMARK    2  A    between atoms: C5_6  and  C6_7 
ROOT
ATOM      1  C2  <0> d           0.002  -0.004   0.002  0.00  0.00    -0.049 A 
ATOM      2  C3  <0> d          -0.016   1.351   0.009  0.00  0.00    -0.039 A 
ATOM      3  S1  <0> d           1.725   1.744  -0.005  0.00  0.00    -0.113 SA
ATOM      4  C4  <0> d           2.360   0.076  -0.020  0.00  0.00    -0.039 A 
ATOM      5  C5  <0> d           1.220  -0.658  -0.013  0.00  0.00    -0.049 A 
ATOM      6  H4  <0> d          -0.864   2.020   0.017  0.00  0.00     0.095 H 
ATOM      7  H5  <0> d           3.386  -0.262  -0.032  0.00  0.00     0.095 H 
ENDROOT
BRANCH   1   8
ATOM      8  C1  <0> d          -1.286  -0.786   0.011  0.00  0.00    -0.050 C 
ATOM      9  H1  <0> d          -1.606  -0.970  -1.015  0.00  0.00     0.033 H 
ATOM     10  H2  <0> d          -1.129  -1.738   0.518  0.00  0.00     0.033 H 
ATOM     11  H3  <0> d          -2.053  -0.217   0.535  0.00  0.00     0.033 H 
ENDBRANCH   1   8
BRANCH   5  12
ATOM     12  C6  <0> d           1.279  -2.164  -0.021  0.00  0.00    -0.050 C 
ATOM     13  H6  <0> d           1.284  -2.522  -1.051  0.00  0.00     0.033 H 
ATOM     14  H7  <0> d           2.188  -2.494   0.482  0.00  0.00     0.033 H 
ATOM     15  H8  <0> d           0.409  -2.564   0.499  0.00  0.00     0.033 H 
ENDBRANCH   5  12
TORSDOF 2
