REMARK  4 active torsions:
REMARK  status: ('A' for Active; 'I' for Inactive)
REMARK    1  A    between atoms: C4_5  and  C5_7 
REMARK    2  A    between atoms: C5_7  and  O2_8 
REMARK    3  A    between atoms: O2_8  and  C6_9 
REMARK    4  A    between atoms: C6_9  and  C7_10 
ROOT
ATOM      1  C1  <0> d          -0.019   1.549   0.011  0.00  0.00    -0.038 C 
ATOM      2  C2  <0> d           1.498   1.864  -0.002  0.00  0.00     0.020 C 
ATOM      3  O1  <0> d           2.100   0.843   0.810  0.00  0.00    -0.391 OA
ATOM      4  C3  <0> d           1.263  -0.319   0.835  0.00  0.00     0.025 C 
ATOM      5  C4  <0> d           0.002  -0.004   0.002  0.00  0.00    -0.011 C 
ATOM      6  H1  <0> d           0.103  -0.385  -1.014  0.00  0.00     0.046 H 
ATOM      7  H2  <0> d          -0.492   1.930   0.916  0.00  0.00     0.036 H 
ATOM      8  H3  <0> d          -0.509   1.940  -0.881  0.00  0.00     0.036 H 
ATOM      9  H4  <0> d           1.886   1.815  -1.020  0.00  0.00     0.074 H 
ATOM     10  H5  <0> d           1.684   2.848   0.427  0.00  0.00     0.074 H 
ATOM     11  H6  <0> d           1.793  -1.165   0.398  0.00  0.00     0.075 H 
ATOM     12  H7  <0> d           0.980  -0.549   1.862  0.00  0.00     0.075 H 
ENDROOT
BRANCH   5  13
ATOM     13  C5  <0> d          -1.250  -0.569   0.675  0.00  0.00     0.025 C 
ATOM     14  H8  <0> d          -1.249  -0.298   1.731  0.00  0.00     0.075 H 
ATOM     15  H9  <0> d          -2.138  -0.157   0.195  0.00  0.00     0.075 H 
BRANCH  13  16
ATOM     16  O2  <0> d          -1.258  -1.993   0.548  0.00  0.00    -0.380 OA
BRANCH  16  17
ATOM     17  C6  <0> d          -2.392  -2.623   1.147  0.00  0.00     0.099 C 
ATOM     18  H10 <0> d          -2.414  -2.395   2.213  0.00  0.00     0.091 H 
ATOM     19  H11 <0> d          -3.303  -2.254   0.677  0.00  0.00     0.091 H 
BRANCH  17  20
ATOM     20  C7  <0> d          -2.297  -4.115   0.955  0.00  0.00     0.197 C 
ATOM     21  O3  <0> d          -1.346  -4.594   0.360  0.00  0.00    -0.646 OA
ATOM     22  O4  <0> d          -3.171  -4.843   1.393  0.00  0.00    -0.646 OA
ENDBRANCH  17  20
ENDBRANCH  16  17
ENDBRANCH  13  16
ENDBRANCH   5  13
TORSDOF 4
