REMARK  2 active torsions:
REMARK  status: ('A' for Active; 'I' for Inactive)
REMARK       I    between atoms: N1_6  and  C5_7 
REMARK    1  A    between atoms: C5_7  and  C6_9 
REMARK    2  A    between atoms: C6_9  and  O3_10 
ROOT
ATOM      1  C1  <0> d           1.423   1.950  -0.001  0.00  0.00     0.017 C 
ATOM      2  C2  <0> d          -0.017   1.425   0.010  0.00  0.00     0.034 C 
ATOM      3  O1  <0> d           0.002  -0.004   0.002  0.00  0.00    -0.388 OA
ATOM      4  C3  <0> d           0.622  -0.587   1.151  0.00  0.00     0.034 C 
ATOM      5  C4  <0> d           2.095  -0.166   1.198  0.00  0.00     0.017 C 
ATOM      6  N1  <0> d           2.162   1.300   1.093  0.00  0.00    -0.346 N 
ATOM      7  C5  <0> d           2.878   2.027   1.974  0.00  0.00     0.243 C 
ATOM      8  O2  <0> d           3.480   1.473   2.869  0.00  0.00    -0.271 OA
ATOM      9  H1  <0> d           1.894   1.710  -0.955  0.00  0.00     0.067 H 
ATOM     10  H2  <0> d           1.422   3.030   0.147  0.00  0.00     0.067 H 
ATOM     11  H3  <0> d          -0.543   1.787  -0.874  0.00  0.00     0.076 H 
ATOM     12  H4  <0> d          -0.526   1.778   0.907  0.00  0.00     0.076 H 
ATOM     13  H5  <0> d           0.115  -0.242   2.052  0.00  0.00     0.076 H 
ATOM     14  H6  <0> d           0.555  -1.673   1.088  0.00  0.00     0.076 H 
ATOM     15  H7  <0> d           2.538  -0.487   2.141  0.00  0.00     0.067 H 
ATOM     16  H8  <0> d           2.633  -0.619   0.366  0.00  0.00     0.067 H 
ENDROOT
BRANCH   7  17
ATOM     17  C6  <0> d           2.932   3.527   1.846  0.00  0.00     0.090 C 
ATOM     18  H9  <0> d           3.355   3.794   0.877  0.00  0.00     0.088 H 
ATOM     19  H10 <0> d           1.924   3.935   1.926  0.00  0.00     0.088 H 
BRANCH  17  20
ATOM     20  O3  <0> d           3.748   4.066   2.888  0.00  0.00    -0.392 OA
ATOM     21  H11 <0> d           3.827   5.029   2.867  0.00  0.00     0.210 HD
ENDBRANCH  17  20
ENDBRANCH   7  17
TORSDOF 2
