REMARK  1 active torsions:
REMARK  status: ('A' for Active; 'I' for Inactive)
REMARK    1  A    between atoms: C4_4  and  C6_6 
REMARK       I    between atoms: C6_6  and  N1_8 
ROOT
ATOM      1  C1  <0> d          -0.019   1.534   0.011  0.00  0.00    -0.064 C 
ATOM      2  C2  <0> d           0.002  -0.004   0.002  0.00  0.00    -0.064 C 
ATOM      3  C3  <0> d           1.486  -0.425  -0.014  0.00  0.00    -0.054 C 
ATOM      4  C4  <0> d           2.232   0.792   0.586  0.00  0.00     0.023 C 
ATOM      5  C5  <0> d           1.453   1.995  -0.001  0.00  0.00    -0.054 C 
ATOM      6  H1  <0> d          -0.533   1.906  -0.876  0.00  0.00     0.033 H 
ATOM      7  H2  <0> d          -0.516   1.896   0.910  0.00  0.00     0.033 H 
ATOM      8  H3  <0> d          -0.485  -0.389   0.898  0.00  0.00     0.033 H 
ATOM      9  H4  <0> d          -0.502  -0.379  -0.888  0.00  0.00     0.033 H 
ATOM     10  H5  <0> d           1.639  -1.309   0.604  0.00  0.00     0.034 H 
ATOM     11  H6  <0> d           1.818  -0.612  -1.036  0.00  0.00     0.034 H 
ATOM     12  H7  <0> d           2.169   0.786   1.675  0.00  0.00     0.054 H 
ATOM     13  H8  <0> d           1.781   2.201  -1.020  0.00  0.00     0.034 H 
ATOM     14  H9  <0> d           1.582   2.877   0.627  0.00  0.00     0.034 H 
ENDROOT
BRANCH   4  15
ATOM     15  C6  <0> d           3.670   0.814   0.134  0.00  0.00     0.219 C 
ATOM     16  O1  <0> d           4.086  -0.053  -0.604  0.00  0.00    -0.273 OA
ATOM     17  N1  <0> d           4.492   1.798   0.548  0.00  0.00    -0.370 N 
ATOM     18  H10 <0> d           4.159   2.493   1.138  0.00  0.00     0.159 HD
ATOM     19  H11 <0> d           5.417   1.813   0.257  0.00  0.00     0.159 HD
ENDBRANCH   4  15
TORSDOF 1
