REMARK  5 active torsions:
REMARK  status: ('A' for Active; 'I' for Inactive)
REMARK    1  A    between atoms: C1_1  and  C2_2 
REMARK    2  A    between atoms: C2_2  and  C3_3 
REMARK    3  A    between atoms: C2_2  and  C4_4 
REMARK    4  A    between atoms: C5_6  and  C7_9 
REMARK    5  A    between atoms: C7_9  and  O1_10 
ROOT
ATOM      1  C4  <0> d           2.104   5.147   0.009  0.00  0.00     0.078 A 
ATOM      2  N1  <0> d           2.211   3.838   0.007  0.00  0.00    -0.247 NA
ATOM      3  C5  <0> d           1.147   3.062   0.008  0.00  0.00     0.065 A 
ATOM      4  C6  <0> d          -0.078   3.647   0.023  0.00  0.00    -0.017 A 
ATOM      5  S1  <0> d           0.382   5.373   0.027  0.00  0.00    -0.084 SA
ATOM      6  H8  <0> d          -1.058   3.194   0.030  0.00  0.00     0.098 H 
ENDROOT
BRANCH   1   7
ATOM      7  C2  <0> d           3.195   6.186   0.004  0.00  0.00    -0.012 C 
ATOM      8  H4  <0> d           4.167   5.692  -0.008  0.00  0.00     0.049 H 
BRANCH   7   9
ATOM      9  C1  <0> d           3.055   7.066  -1.240  0.00  0.00    -0.067 C 
ATOM     10  H1  <0> d           3.845   7.818  -1.244  0.00  0.00     0.028 H 
ATOM     11  H2  <0> d           3.138   6.448  -2.134  0.00  0.00     0.028 H 
ATOM     12  H3  <0> d           2.084   7.560  -1.228  0.00  0.00     0.028 H 
ENDBRANCH   7   9
BRANCH   7  13
ATOM     13  C3  <0> d           3.079   7.054   1.258  0.00  0.00    -0.067 C 
ATOM     14  H5  <0> d           3.179   6.427   2.144  0.00  0.00     0.028 H 
ATOM     15  H6  <0> d           3.869   7.805   1.254  0.00  0.00     0.028 H 
ATOM     16  H7  <0> d           2.108   7.548   1.270  0.00  0.00     0.028 H 
ENDBRANCH   7  13
ENDBRANCH   1   7
BRANCH   3  17
ATOM     17  C7  <0> d           1.286   1.562  -0.002  0.00  0.00     0.057 C 
ATOM     18  H9  <0> d           1.840   1.243   0.881  0.00  0.00     0.083 H 
ATOM     19  H10 <0> d           1.823   1.252  -0.899  0.00  0.00     0.083 H 
BRANCH  17  20
ATOM     20  O1  <0> d          -0.011   0.963   0.007  0.00  0.00    -0.395 OA
ATOM     21  H11 <0> d           0.002  -0.004   0.002  0.00  0.00     0.209 HD
ENDBRANCH  17  20
ENDBRANCH   3  17
TORSDOF 5
