REMARK  3 active torsions:
REMARK  status: ('A' for Active; 'I' for Inactive)
REMARK    1  A    between atoms: C1_1  and  C2_2 
REMARK    2  A    between atoms: C5_5  and  O1_9 
REMARK    3  A    between atoms: O1_9  and  C8_10 
ROOT
ATOM      1  C2  <0> d          -1.239   3.133   0.029  0.00  0.00    -0.059 A 
ATOM      2  C3  <0> d          -1.218   1.751   0.017  0.00  0.00    -0.074 A 
ATOM      3  C4  <0> d          -0.013   1.076   0.008  0.00  0.00    -0.047 A 
ATOM      4  C5  <0> d           1.179   1.786   0.000  0.00  0.00     0.106 A 
ATOM      5  C6  <0> d           1.156   3.175   0.008  0.00  0.00     0.150 A 
ATOM      6  C7  <0> d          -0.054   3.845   0.022  0.00  0.00    -0.037 A 
ATOM      7  F1  <0> d           2.315   3.870  -0.000  0.00  0.00    -0.203 F 
ATOM      8  H4  <0> d          -2.146   1.198   0.019  0.00  0.00     0.084 H 
ATOM      9  H5  <0> d           0.002  -0.004   0.002  0.00  0.00     0.087 H 
ATOM     10  H6  <0> d          -0.072   4.925   0.028  0.00  0.00     0.089 H 
ENDROOT
BRANCH   4  11
ATOM     11  O1  <0> d           2.366   1.124  -0.015  0.00  0.00    -0.353 OA
BRANCH  11  12
ATOM     12  C8  <0> d           2.312  -0.304  -0.022  0.00  0.00     0.011 C 
ATOM     13  H7  <0> d           1.777  -0.643  -0.908  0.00  0.00     0.066 H 
ATOM     14  H8  <0> d           3.326  -0.706  -0.033  0.00  0.00     0.066 H 
ATOM     15  H9  <0> d           1.794  -0.653   0.872  0.00  0.00     0.066 H 
ENDBRANCH  11  12
ENDBRANCH   4  11
BRANCH   1  16
ATOM     16  C1  <0> d          -2.556   3.865   0.044  0.00  0.00    -0.051 C 
ATOM     17  H1  <0> d          -2.882   4.047  -0.980  0.00  0.00     0.033 H 
ATOM     18  H2  <0> d          -3.301   3.262   0.562  0.00  0.00     0.033 H 
ATOM     19  H3  <0> d          -2.436   4.817   0.562  0.00  0.00     0.033 H 
ENDBRANCH   1  16
TORSDOF 3
