REMARK  2 active torsions:
REMARK  status: ('A' for Active; 'I' for Inactive)
REMARK    1  A    between atoms: C1_1  and  S1_2 
REMARK    2  A    between atoms: S1_2  and  C2_4 
ROOT
ATOM      1  C2  <0> d           1.175   1.783   0.000  0.00  0.00     0.031 A 
ATOM      2  C3  <0> d          -0.013   1.076   0.008  0.00  0.00    -0.064 A 
ATOM      3  C4  <0> d          -1.219   1.751   0.017  0.00  0.00    -0.082 A 
ATOM      4  C5  <0> d          -1.238   3.133   0.029  0.00  0.00    -0.083 A 
ATOM      5  C6  <0> d          -0.050   3.840   0.022  0.00  0.00    -0.082 A 
ATOM      6  C7  <0> d           1.156   3.165   0.008  0.00  0.00    -0.064 A 
ATOM      7  H4  <0> d           0.002  -0.004   0.002  0.00  0.00     0.085 H 
ATOM      8  H5  <0> d          -2.147   1.198   0.019  0.00  0.00     0.083 H 
ATOM      9  H6  <0> d          -2.180   3.660   0.040  0.00  0.00     0.083 H 
ATOM     10  H7  <0> d          -0.065   4.920   0.028  0.00  0.00     0.083 H 
ATOM     11  H8  <0> d           2.084   3.718   0.003  0.00  0.00     0.085 H 
ENDROOT
BRANCH   1  12
ATOM     12  S1  <0> d           2.713   0.923  -0.018  0.00  0.00     0.045 S 
ATOM     13  O1  <0> d           3.630   1.847   0.552  0.00  0.00    -0.253 OA
BRANCH  12  14
ATOM     14  C1  <0> d           3.079   0.718  -1.783  0.00  0.00    -0.004 C 
ATOM     15  H1  <0> d           3.151   1.697  -2.256  0.00  0.00     0.045 H 
ATOM     16  H2  <0> d           4.025   0.189  -1.899  0.00  0.00     0.045 H 
ATOM     17  H3  <0> d           2.282   0.144  -2.255  0.00  0.00     0.045 H 
ENDBRANCH  12  14
ENDBRANCH   1  12
TORSDOF 2
