REMARK  1 active torsions:
REMARK  status: ('A' for Active; 'I' for Inactive)
REMARK    1  A    between atoms: C4_4  and  N1_7 
ROOT
ATOM      1  C1  <0> d          -0.017   1.379   0.010  0.00  0.00    -0.083 A 
ATOM      2  C2  <0> d           1.170   2.089   0.002  0.00  0.00    -0.081 A 
ATOM      3  C3  <0> d           2.377   1.419  -0.013  0.00  0.00    -0.055 A 
ATOM      4  C4  <0> d           2.399   0.031  -0.021  0.00  0.00     0.061 A 
ATOM      5  C5  <0> d           1.207  -0.680  -0.013  0.00  0.00    -0.055 A 
ATOM      6  C6  <0> d           0.002  -0.004   0.002  0.00  0.00    -0.081 A 
ATOM      7  H1  <0> d          -0.960   1.905   0.026  0.00  0.00     0.083 H 
ATOM      8  H2  <0> d           1.152   3.169   0.008  0.00  0.00     0.083 H 
ATOM      9  H3  <0> d           3.304   1.974  -0.019  0.00  0.00     0.087 H 
ATOM     10  H4  <0> d           1.221  -1.760  -0.019  0.00  0.00     0.087 H 
ATOM     11  H5  <0> d          -0.926  -0.556   0.008  0.00  0.00     0.083 H 
ENDROOT
BRANCH   4  12
ATOM     12  N1  <0> d           3.624  -0.653  -0.037  0.00  0.00    -0.206 N 
ATOM     13  N4  <0> d           4.914  -0.093  -0.047  0.00  0.00    -0.040 NA
ATOM     14  N3  <0> d           5.745  -1.079  -0.057  0.00  0.00    -0.023 NA
ATOM     15  N2  <0> d           5.109  -2.195  -0.063  0.00  0.00    -0.122 NA
ATOM     16  C7  <0> d           3.817  -1.989  -0.051  0.00  0.00     0.113 A 
ATOM     17  H6  <0> d           3.048  -2.748  -0.053  0.00  0.00     0.149 H 
ENDBRANCH   4  12
TORSDOF 1
