REMARK  0 active torsions:
REMARK  status: ('A' for Active; 'I' for Inactive)
ROOT
ATOM      1  C1  <0> d           2.188   4.210   0.005  0.00  0.00    -0.053 A 
ATOM      2  C2  <0> d           1.559   5.396   0.017  0.00  0.00    -0.022 A 
ATOM      3  N1  <0> d           0.203   5.205   0.029  0.00  0.00    -0.365 N 
ATOM      4  H1  <0> d          -0.459   5.913   0.039  0.00  0.00     0.165 HD
ATOM      5  C3  <0> d          -0.080   3.857   0.024  0.00  0.00     0.048 A 
ATOM      6  C4  <0> d           1.150   3.175   0.008  0.00  0.00     0.031 A 
ATOM      7  C5  <0> d           1.174   1.778   0.000  0.00  0.00     0.131 A 
ATOM      8  C6  <0> d          -0.013   1.076   0.008  0.00  0.00    -0.007 A 
ATOM      9  C7  <0> d          -1.228   1.751   0.017  0.00  0.00     0.121 A 
ATOM     10  C8  <0> d          -1.266   3.130   0.030  0.00  0.00    -0.019 A 
ATOM     11  F1  <0> d          -2.382   1.050   0.019  0.00  0.00    -0.206 F 
ATOM     12  F2  <0> d           2.353   1.119  -0.014  0.00  0.00    -0.205 F 
ATOM     13  H2  <0> d           3.256   4.049  -0.006  0.00  0.00     0.087 H 
ATOM     14  H3  <0> d           2.050   6.358   0.018  0.00  0.00     0.111 H 
ATOM     15  H4  <0> d           0.002  -0.004   0.002  0.00  0.00     0.093 H 
ATOM     16  H5  <0> d          -2.215   3.644   0.042  0.00  0.00     0.091 H 
ENDROOT
TORSDOF 0
