REMARK  4 active torsions:
REMARK  status: ('A' for Active; 'I' for Inactive)
REMARK    1  A    between atoms: C1_1  and  C2_2 
REMARK    2  A    between atoms: C2_2  and  O1_3 
REMARK    3  A    between atoms: O1_3  and  C3_4 
REMARK    4  A    between atoms: C4_5  and  C5_6 
ROOT
ATOM      1  O1  <0> d          -1.339  -0.499   0.012  0.00  0.00    -0.363 OA
ENDROOT
BRANCH   1   2
ATOM      2  C2  <0> d           0.002  -0.004   0.002  0.00  0.00     0.022 C 
ATOM      3  H4  <0> d           0.512  -0.356  -0.895  0.00  0.00     0.074 H 
ATOM      4  H5  <0> d           0.529  -0.365   0.885  0.00  0.00     0.074 H 
BRANCH   2   5
ATOM      5  C1  <0> d          -0.019   1.526   0.010  0.00  0.00    -0.056 C 
ATOM      6  H1  <0> d           1.004   1.903   0.003  0.00  0.00     0.030 H 
ATOM      7  H2  <0> d          -0.546   1.887  -0.873  0.00  0.00     0.030 H 
ATOM      8  H3  <0> d          -0.529   1.877   0.907  0.00  0.00     0.030 H 
ENDBRANCH   2   5
ENDBRANCH   1   2
BRANCH   1   9
ATOM      9  C3  <0> d          -1.498  -1.846   0.006  0.00  0.00     0.017 C 
ATOM     10  C4  <0> d          -2.708  -2.366   0.015  0.00  0.00     0.019 C 
ATOM     11  H7  <0> d          -3.573  -1.720   0.027  0.00  0.00     0.093 H 
ATOM     12  H6  <0> d          -0.633  -2.492  -0.005  0.00  0.00     0.122 H 
BRANCH  10  13
ATOM     13  C5  <0> d          -2.885  -3.862   0.009  0.00  0.00     0.409 C 
ATOM     14  F1  <0> d          -1.630  -4.481  -0.006  0.00  0.00    -0.167 F 
ATOM     15  F2  <0> d          -3.584  -4.254   1.156  0.00  0.00    -0.167 F 
ATOM     16  F3  <0> d          -3.606  -4.242  -1.129  0.00  0.00    -0.167 F 
ENDBRANCH  10  13
ENDBRANCH   1   9
TORSDOF 4
