REMARK  2 active torsions:
REMARK  status: ('A' for Active; 'I' for Inactive)
REMARK    1  A    between atoms: C1_1  and  O1_2 
REMARK    2  A    between atoms: O1_2  and  C2_3 
ROOT
ATOM      1  C2  <0> d           1.280   2.024   0.001  0.00  0.00     0.105 C 
ATOM      2  H1  <0> d           1.930   1.526   0.721  0.00  0.00     0.117 H 
ATOM      3  C3  <0> d           1.175   3.531   0.324  0.00  0.00    -0.017 C 
ATOM      4  C4  <0> d           1.097   4.151  -1.091  0.00  0.00     0.013 C 
ATOM      5  C5  <0> d           1.769   3.131  -1.982  0.00  0.00     0.219 C 
ATOM      6  O2  <0> d           2.166   3.345  -3.108  0.00  0.00    -0.274 OA
ATOM      7  N1  <0> d           1.864   1.951  -1.344  0.00  0.00    -0.335 N 
ATOM      8  H5  <0> d           0.272   3.746   0.895  0.00  0.00     0.040 H 
ATOM      9  H6  <0> d           2.062   3.879   0.854  0.00  0.00     0.040 H 
ATOM     10  H7  <0> d           1.635   5.099  -1.122  0.00  0.00     0.047 H 
ATOM     11  H8  <0> d           0.059   4.294  -1.390  0.00  0.00     0.047 H 
ATOM     12  H9  <0> d           2.265   1.154  -1.724  0.00  0.00     0.165 HD
ENDROOT
BRANCH   1  13
ATOM     13  O1  <0> d          -0.017   1.425   0.010  0.00  0.00    -0.372 OA
BRANCH  13  14
ATOM     14  C1  <0> d           0.002  -0.004   0.002  0.00  0.00     0.006 C 
ATOM     15  H2  <0> d           0.529  -0.365   0.885  0.00  0.00     0.066 H 
ATOM     16  H3  <0> d          -1.020  -0.381   0.010  0.00  0.00     0.066 H 
ATOM     17  H4  <0> d           0.512  -0.356  -0.895  0.00  0.00     0.066 H 
ENDBRANCH  13  14
ENDBRANCH   1  13
TORSDOF 2
