REMARK  4 active torsions:
REMARK  status: ('A' for Active; 'I' for Inactive)
REMARK    1  A    between atoms: C1_1  and  C2_2 
REMARK    2  A    between atoms: C2_2  and  C3_3 
REMARK    3  A    between atoms: C2_2  and  C4_4 
REMARK    4  A    between atoms: C2_2  and  C5_5 
ROOT
ATOM      1  C2  <0> d          -1.513   4.556  -0.307  0.00  0.00    -0.045 C 
ENDROOT
BRANCH   1   2
ATOM      2  C1  <0> d          -1.326   4.366  -1.814  0.00  0.00    -0.069 C 
ATOM      3  H2  <0> d          -1.796   3.433  -2.124  0.00  0.00     0.028 H 
ATOM      4  H3  <0> d          -1.787   5.199  -2.345  0.00  0.00     0.028 H 
ATOM      5  H4  <0> d          -0.262   4.332  -2.047  0.00  0.00     0.028 H 
ENDBRANCH   1   2
BRANCH   1   6
ATOM      6  C3  <0> d          -2.998   4.438   0.041  0.00  0.00    -0.069 C 
ATOM      7  H5  <0> d          -3.132   4.573   1.114  0.00  0.00     0.028 H 
ATOM      8  H6  <0> d          -3.559   5.205  -0.494  0.00  0.00     0.028 H 
ATOM      9  H7  <0> d          -3.363   3.452  -0.250  0.00  0.00     0.028 H 
ENDBRANCH   1   6
BRANCH   1  10
ATOM     10  C4  <0> d          -1.002   5.939   0.100  0.00  0.00    -0.069 C 
ATOM     11  H8  <0> d           0.056   6.023  -0.148  0.00  0.00     0.028 H 
ATOM     12  H9  <0> d          -1.562   6.705  -0.435  0.00  0.00     0.028 H 
ATOM     13  H10 <0> d          -1.135   6.074   1.173  0.00  0.00     0.028 H 
ENDBRANCH   1  10
BRANCH   1  14
ATOM     14  C5  <0> d          -0.727   3.479   0.443  0.00  0.00    -0.018 C 
ATOM     15  H1  <0> d          -0.890   3.557   1.518  0.00  0.00     0.045 H 
ATOM     16  C8  <0> d           0.779   3.558   0.106  0.00  0.00     0.033 C 
ATOM     17  O2  <0> d           1.244   2.181   0.069  0.00  0.00    -0.321 OA
ATOM     18  H13 <0> d           1.310   4.114   0.879  0.00  0.00     0.075 H 
ATOM     19  H14 <0> d           0.925   4.031  -0.865  0.00  0.00     0.075 H 
ATOM     20  C7  <0> d           0.226   1.318  -0.038  0.00  0.00     0.259 C 
ATOM     21  C6  <0> d          -1.088   2.067  -0.079  0.00  0.00     0.022 C 
ATOM     22  O1  <0> d           0.340   0.117  -0.098  0.00  0.00    -0.265 OA
ATOM     23  H11 <0> d          -1.467   2.120  -1.099  0.00  0.00     0.048 H 
ATOM     24  H12 <0> d          -1.819   1.594   0.577  0.00  0.00     0.048 H 
ENDBRANCH   1  14
TORSDOF 4
