REMARK  2 active torsions:
REMARK  status: ('A' for Active; 'I' for Inactive)
REMARK    1  A    between atoms: C1_1  and  C2_2 
REMARK    2  A    between atoms: C10_11  and  N2_12 
ROOT
ATOM      1  C2  <0> d           3.630  -0.667  -0.038  0.00  0.00    -0.048 A 
ATOM      2  C3  <0> d           4.775   0.077  -0.045  0.00  0.00    -0.059 A 
ATOM      3  C4  <0> d           4.700   1.468  -0.036  0.00  0.00     0.003 A 
ATOM      4  N1  <0> d           3.549   2.096  -0.021  0.00  0.00    -0.258 NA
ATOM      5  C5  <0> d           2.393   1.427  -0.013  0.00  0.00     0.093 A 
ATOM      6  C6  <0> d           2.397   0.011  -0.021  0.00  0.00     0.001 A 
ATOM      7  C7  <0> d           1.179  -0.689  -0.013  0.00  0.00    -0.070 A 
ATOM      8  C8  <0> d           0.002  -0.004   0.002  0.00  0.00    -0.080 A 
ATOM      9  C9  <0> d          -0.017   1.388   0.010  0.00  0.00    -0.055 A 
ATOM     10  C10 <0> d           1.156   2.110   0.002  0.00  0.00     0.055 A 
ATOM     11  H4  <0> d           5.738  -0.412  -0.058  0.00  0.00     0.086 H 
ATOM     12  H5  <0> d           5.613   2.044  -0.043  0.00  0.00     0.114 H 
ATOM     13  H6  <0> d           1.176  -1.769  -0.019  0.00  0.00     0.084 H 
ATOM     14  H7  <0> d          -0.930  -0.549   0.008  0.00  0.00     0.083 H 
ATOM     15  H8  <0> d          -0.963   1.908   0.017  0.00  0.00     0.087 H 
ENDROOT
BRANCH   1  16
ATOM     16  C1  <0> d           3.685  -2.173  -0.048  0.00  0.00    -0.050 C 
ATOM     17  H1  <0> d           3.688  -2.530  -1.077  0.00  0.00     0.033 H 
ATOM     18  H2  <0> d           4.593  -2.507   0.455  0.00  0.00     0.033 H 
ATOM     19  H3  <0> d           2.814  -2.572   0.473  0.00  0.00     0.033 H 
ENDBRANCH   1  16
BRANCH  10  20
ATOM     20  N2  <0> d           1.123   3.504   0.010  0.00  0.00    -0.397 N 
ATOM     21  H9  <0> d           0.272   3.969   0.020  0.00  0.00     0.156 HD
ATOM     22  H10 <0> d           1.952   4.009   0.004  0.00  0.00     0.156 HD
ENDBRANCH  10  20
TORSDOF 2
