REMARK  2 active torsions:
REMARK  status: ('A' for Active; 'I' for Inactive)
REMARK    1  A    between atoms: C1_1  and  C2_2 
REMARK    2  A    between atoms: C4_5  and  C5_7 
ROOT
ATOM      1  C5  <0> d           2.385   1.407  -0.014  0.00  0.00     0.017 A 
ATOM      2  C6  <0> d           1.167   2.088   0.002  0.00  0.00    -0.069 A 
ATOM      3  C7  <0> d          -0.017   1.379   0.010  0.00  0.00    -0.082 A 
ATOM      4  C8  <0> d           0.002  -0.004   0.002  0.00  0.00    -0.083 A 
ATOM      5  C9  <0> d           1.206  -0.686  -0.013  0.00  0.00    -0.082 A 
ATOM      6  C10 <0> d           2.397   0.011  -0.021  0.00  0.00    -0.069 A 
ATOM      7  H5  <0> d           1.151   3.168   0.008  0.00  0.00     0.085 H 
ATOM      8  H6  <0> d          -0.960   1.905   0.017  0.00  0.00     0.083 H 
ATOM      9  H7  <0> d          -0.927  -0.554   0.008  0.00  0.00     0.083 H 
ATOM     10  H8  <0> d           1.214  -1.766  -0.019  0.00  0.00     0.083 H 
ATOM     11  H9  <0> d           3.336  -0.522  -0.033  0.00  0.00     0.085 H 
ENDROOT
BRANCH   1  12
ATOM     12  C4  <0> d           3.657   2.160  -0.022  0.00  0.00     0.179 A 
ATOM     13  N1  <0> d           4.859   1.634  -0.030  0.00  0.00    -0.234 NA
ATOM     14  C3  <0> d           5.761   2.627  -0.038  0.00  0.00     0.033 A 
ATOM     15  C2  <0> d           5.091   3.793  -0.026  0.00  0.00     0.069 A 
ATOM     16  H4  <0> d           6.835   2.510  -0.049  0.00  0.00     0.118 H 
ATOM     17  O1  <0> d           3.776   3.499  -0.016  0.00  0.00    -0.295 OA
BRANCH  15  18
ATOM     18  C1  <0> d           5.699   5.172  -0.025  0.00  0.00    -0.030 C 
ATOM     19  H1  <0> d           4.904   5.919  -0.013  0.00  0.00     0.036 H 
ATOM     20  H2  <0> d           6.324   5.293   0.860  0.00  0.00     0.036 H 
ATOM     21  H3  <0> d           6.307   5.303  -0.920  0.00  0.00     0.036 H 
ENDBRANCH  15  18
ENDBRANCH   1  12
TORSDOF 2
