REMARK  2 active torsions:
REMARK  status: ('A' for Active; 'I' for Inactive)
REMARK    1  A    between atoms: C1_1  and  C2_2 
REMARK    2  A    between atoms: C7_9  and  O1_12 
ROOT
ATOM      1  C2  <0> d           3.449   2.410  -0.016  0.00  0.00    -0.034 A 
ATOM      2  C3  <0> d           2.836   3.603  -0.004  0.00  0.00    -0.016 A 
ATOM      3  N1  <0> d           1.479   3.430   0.007  0.00  0.00    -0.365 N 
ATOM      4  H1  <0> d           0.825   4.147   0.017  0.00  0.00     0.165 HD
ATOM      5  C4  <0> d           1.178   2.084   0.002  0.00  0.00     0.043 A 
ATOM      6  C5  <0> d           2.400   1.388  -0.013  0.00  0.00     0.000 A 
ATOM      7  C6  <0> d           2.407  -0.009  -0.021  0.00  0.00    -0.038 A 
ATOM      8  C7  <0> d           1.210  -0.697  -0.013  0.00  0.00     0.066 A 
ATOM      9  C8  <0> d           0.002  -0.004   0.002  0.00  0.00    -0.049 A 
ATOM     10  C9  <0> d          -0.017   1.373   0.010  0.00  0.00    -0.054 A 
ATOM     11  H5  <0> d           3.339   4.559  -0.003  0.00  0.00     0.112 H 
ATOM     12  H6  <0> d           3.343  -0.547  -0.032  0.00  0.00     0.089 H 
ATOM     13  H7  <0> d          -0.929  -0.552   0.008  0.00  0.00     0.087 H 
ATOM     14  H8  <0> d          -0.959   1.900   0.017  0.00  0.00     0.087 H 
ENDROOT
BRANCH   1  15
ATOM     15  C1  <0> d           4.937   2.167  -0.032  0.00  0.00    -0.049 C 
ATOM     16  H2  <0> d           5.286   2.115  -1.063  0.00  0.00     0.033 H 
ATOM     17  H3  <0> d           5.444   2.983   0.482  0.00  0.00     0.033 H 
ATOM     18  H4  <0> d           5.157   1.226   0.474  0.00  0.00     0.033 H 
ENDBRANCH   1  15
BRANCH   8  19
ATOM     19  O1  <0> d           1.210  -2.057  -0.021  0.00  0.00    -0.361 OA
ATOM     20  H9  <0> d           1.202  -2.445  -0.906  0.00  0.00     0.217 HD
ENDBRANCH   8  19
TORSDOF 2
