REMARK  3 active torsions:
REMARK  status: ('A' for Active; 'I' for Inactive)
REMARK    1  A    between atoms: C1_1  and  C2_2 
REMARK    2  A    between atoms: C2_2  and  O2_9 
REMARK    3  A    between atoms: C6_6  and  O1_8 
ROOT
ATOM      1  C2  <0> d          -2.284   1.500   0.797  0.00  0.00     0.080 C 
ATOM      2  C3  <0> d          -0.802   1.617   1.230  0.00  0.00    -0.034 C 
ATOM      3  C4  <0> d          -0.013   1.086   0.008  0.00  0.00    -0.060 C 
ATOM      4  C5  <0> d          -0.825   1.630  -1.193  0.00  0.00    -0.038 C 
ATOM      5  C6  <0> d          -2.296   1.508  -0.741  0.00  0.00     0.065 C 
ATOM      6  H1  <0> d          -2.725   0.579  -1.116  0.00  0.00     0.087 H 
ATOM      7  H5  <0> d          -0.607   1.001   2.108  0.00  0.00     0.037 H 
ATOM      8  H6  <0> d          -0.544   2.658   1.428  0.00  0.00     0.037 H 
ATOM      9  H7  <0> d           0.002  -0.004   0.002  0.00  0.00     0.033 H 
ATOM     10  H8  <0> d           1.002   1.484   0.001  0.00  0.00     0.033 H 
ATOM     11  H9  <0> d          -0.571   2.673  -1.385  0.00  0.00     0.036 H 
ATOM     12  H10 <0> d          -0.647   1.024  -2.081  0.00  0.00     0.036 H 
ENDROOT
BRANCH   1  13
ATOM     13  C1  <0> d          -3.083   2.689   1.334  0.00  0.00    -0.045 C 
ATOM     14  H2  <0> d          -4.113   2.622   0.983  0.00  0.00     0.031 H 
ATOM     15  H3  <0> d          -3.068   2.674   2.424  0.00  0.00     0.031 H 
ATOM     16  H4  <0> d          -2.637   3.617   0.977  0.00  0.00     0.031 H 
ENDBRANCH   1  13
BRANCH   1  17
ATOM     17  O2  <0> d          -2.839   0.277   1.285  0.00  0.00    -0.388 OA
ATOM     18  H12 <0> d          -2.860   0.211   2.249  0.00  0.00     0.210 HD
ENDBRANCH   1  17
BRANCH   5  19
ATOM     19  O1  <0> d          -3.049   2.624  -1.220  0.00  0.00    -0.393 OA
ATOM     20  H11 <0> d          -3.076   2.696  -2.184  0.00  0.00     0.210 HD
ENDBRANCH   5  19
TORSDOF 3
