REMARK  1 active torsions:
REMARK  status: ('A' for Active; 'I' for Inactive)
REMARK    1  A    between atoms: C1_1  and  N1_2 
ROOT
ATOM      1  N1  <0> d           0.002  -0.004   0.002  0.00  0.00    -0.284 N 
ATOM      2  C2  <0> d           0.007  -0.766  -1.099  0.00  0.00     0.010 A 
ATOM      3  C3  <0> d           0.027  -2.091  -0.698  0.00  0.00     0.013 A 
ATOM      4  C4  <0> d           0.041  -3.328  -1.369  0.00  0.00    -0.049 A 
ATOM      5  C5  <0> d           0.060  -4.497  -0.633  0.00  0.00     0.045 A 
ATOM      6  C6  <0> d           0.066  -4.474   0.777  0.00  0.00    -0.061 A 
ATOM      7  C7  <0> d           0.054  -3.311   1.468  0.00  0.00    -0.051 A 
ATOM      8  C8  <0> d           0.034  -2.079   0.774  0.00  0.00     0.088 A 
ATOM      9  N2  <0> d           0.024  -0.813   1.144  0.00  0.00    -0.173 NA
ATOM     10  C9  <0> d           0.074  -5.757  -1.315  0.00  0.00     0.099 C 
ATOM     11  N3  <0> d           0.084  -6.755  -1.856  0.00  0.00    -0.191 NA
ATOM     12  H4  <0> d          -0.003  -0.410  -2.119  0.00  0.00     0.115 H 
ATOM     13  H5  <0> d           0.036  -3.362  -2.448  0.00  0.00     0.087 H 
ATOM     14  H6  <0> d           0.081  -5.408   1.319  0.00  0.00     0.086 H 
ATOM     15  H7  <0> d           0.059  -3.324   2.547  0.00  0.00     0.087 H 
ENDROOT
BRANCH   1  16
ATOM     16  C1  <0> d          -0.018   1.461   0.010  0.00  0.00     0.002 C 
ATOM     17  H1  <0> d           1.005   1.838   0.002  0.00  0.00     0.059 H 
ATOM     18  H2  <0> d          -0.545   1.822  -0.873  0.00  0.00     0.059 H 
ATOM     19  H3  <0> d          -0.528   1.812   0.907  0.00  0.00     0.059 H 
ENDBRANCH   1  16
TORSDOF 1
