REMARK  2 active torsions:
REMARK  status: ('A' for Active; 'I' for Inactive)
REMARK    1  A    between atoms: C1_1  and  C2_2 
REMARK    2  A    between atoms: C8_8  and  C11_12 
ROOT
ATOM      1  C2  <0> d          -0.718   1.572   1.248  0.00  0.00    -0.060 A 
ATOM      2  C3  <0> d          -2.095   1.787   1.214  0.00  0.00    -0.076 A 
ATOM      3  C4  <0> d          -2.761   2.220   2.319  0.00  0.00    -0.070 A 
ATOM      4  C5  <0> d          -2.052   2.465   3.506  0.00  0.00    -0.007 A 
ATOM      5  C6  <0> d          -2.703   2.919   4.668  0.00  0.00    -0.069 A 
ATOM      6  C7  <0> d          -1.949   3.136   5.786  0.00  0.00    -0.059 A 
ATOM      7  C8  <0> d          -0.575   2.907   5.753  0.00  0.00     0.031 A 
ATOM      8  N1  <0> d           0.028   2.484   4.669  0.00  0.00    -0.253 NA
ATOM      9  C9  <0> d          -0.652   2.252   3.541  0.00  0.00     0.068 A 
ATOM     10  C10 <0> d           0.000   1.798   2.381  0.00  0.00    -0.049 A 
ATOM     11  H4  <0> d          -2.640   1.604   0.300  0.00  0.00     0.084 H 
ATOM     12  H5  <0> d          -3.829   2.380   2.281  0.00  0.00     0.084 H 
ATOM     13  H6  <0> d          -3.769   3.092   4.676  0.00  0.00     0.085 H 
ATOM     14  H7  <0> d          -2.418   3.485   6.695  0.00  0.00     0.086 H 
ATOM     15  H8  <0> d           1.067   1.631   2.389  0.00  0.00     0.087 H 
ENDROOT
BRANCH   1  16
ATOM     16  C1  <0> d          -0.013   1.086   0.008  0.00  0.00    -0.051 C 
ATOM     17  H1  <0> d           0.002  -0.004   0.002  0.00  0.00     0.033 H 
ATOM     18  H2  <0> d           1.010   1.463   0.000  0.00  0.00     0.033 H 
ATOM     19  H3  <0> d          -0.540   1.447  -0.875  0.00  0.00     0.033 H 
ENDBRANCH   1  16
BRANCH   7  20
ATOM     20  C11 <0> d           0.239   3.152   6.997  0.00  0.00    -0.035 C 
ATOM     21  H9  <0> d           0.590   4.184   7.004  0.00  0.00     0.035 H 
ATOM     22  H10 <0> d          -0.379   2.974   7.877  0.00  0.00     0.035 H 
ATOM     23  H11 <0> d           1.095   2.477   7.011  0.00  0.00     0.035 H 
ENDBRANCH   7  20
TORSDOF 2
