REMARK  4 active torsions:
REMARK  status: ('A' for Active; 'I' for Inactive)
REMARK    1  A    between atoms: C1_1  and  C2_2 
REMARK       I    between atoms: C2_2  and  N1_4 
REMARK    2  A    between atoms: N1_4  and  C3_5 
REMARK    3  A    between atoms: C3_5  and  C4_6 
REMARK    4  A    between atoms: C4_6  and  C5_7 
ROOT
ATOM      1  C4  <0> d           0.013  -2.639  -2.622  0.00  0.00    -0.004 C 
ATOM      2  H7  <0> d          -0.887  -2.285  -3.126  0.00  0.00     0.042 H 
ATOM      3  H8  <0> d           0.893  -2.260  -3.142  0.00  0.00     0.042 H 
ENDROOT
BRANCH   1   4
ATOM      4  C3  <0> d           0.020  -2.136  -1.177  0.00  0.00    -0.001 C 
ATOM      5  H5  <0> d           0.920  -2.490  -0.673  0.00  0.00     0.064 H 
ATOM      6  H6  <0> d          -0.860  -2.515  -0.657  0.00  0.00     0.064 H 
BRANCH   4   7
ATOM      7  N1  <0> d           0.000  -0.672  -1.169  0.00  0.00    -0.361 N 
ATOM      8  C2  <0> d           0.002  -0.004   0.002  0.00  0.00     0.213 C 
ATOM      9  O1  <0> d           0.020  -0.616   1.049  0.00  0.00    -0.274 OA
ATOM     10  H4  <0> d          -0.015  -0.182  -2.006  0.00  0.00     0.162 HD
BRANCH   8  11
ATOM     11  C1  <0> d          -0.018   1.503   0.010  0.00  0.00    -0.003 C 
ATOM     12  H1  <0> d           1.004   1.880   0.003  0.00  0.00     0.040 H 
ATOM     13  H2  <0> d          -0.545   1.864  -0.873  0.00  0.00     0.040 H 
ATOM     14  H3  <0> d          -0.529   1.854   0.907  0.00  0.00     0.040 H 
ENDBRANCH   8  11
ENDBRANCH   4   7
ENDBRANCH   1   4
BRANCH   1  15
ATOM     15  C5  <0> d           0.034  -4.168  -2.631  0.00  0.00     0.132 C 
ATOM     16  O3  <0> d           0.145  -4.654  -3.979  0.00  0.00    -0.359 OA
ATOM     17  C7  <0> d          -0.638  -5.858  -4.062  0.00  0.00     0.042 C 
ATOM     18  C6  <0> d          -1.263  -6.028  -2.660  0.00  0.00     0.042 C 
ATOM     19  H12 <0> d           0.000  -6.710  -4.297  0.00  0.00     0.077 H 
ATOM     20  H13 <0> d          -1.419  -5.750  -4.814  0.00  0.00     0.077 H 
ATOM     21  O2  <0> d          -1.214  -4.685  -2.119  0.00  0.00    -0.359 OA
ATOM     22  H10 <0> d          -0.669  -6.710  -2.052  0.00  0.00     0.077 H 
ATOM     23  H11 <0> d          -2.294  -6.375  -2.736  0.00  0.00     0.077 H 
ATOM     24  H9  <0> d           0.867  -4.535  -2.030  0.00  0.00     0.129 H 
ENDBRANCH   1  15
TORSDOF 4
