REMARK  2 active torsions:
REMARK  status: ('A' for Active; 'I' for Inactive)
REMARK    1  A    between atoms: C1_1  and  C2_2 
REMARK    2  A    between atoms: C2_2  and  C3_3 
ROOT
ATOM      1  C3  <0> d          -0.060   3.879  -0.961  0.00  0.00    -0.054 C 
ATOM      2  C4  <0> d           1.202   3.030  -1.128  0.00  0.00    -0.056 C 
ATOM      3  C5  <0> d           1.274   1.997   0.001  0.00  0.00    -0.009 C 
ATOM      4  C6  <0> d          -0.014   1.203   0.009  0.00  0.00     0.127 C 
ATOM      5  O1  <0> d           0.002  -0.004   0.002  0.00  0.00    -0.298 OA
ATOM      6  C7  <0> d          -1.323   1.961   0.019  0.00  0.00    -0.009 C 
ATOM      7  C8  <0> d          -1.301   2.996  -1.105  0.00  0.00    -0.056 C 
ATOM      8  H6  <0> d          -0.057   4.342   0.026  0.00  0.00     0.040 H 
ATOM      9  H7  <0> d           2.081   3.674  -1.088  0.00  0.00     0.034 H 
ATOM     10  H8  <0> d           1.171   2.518  -2.089  0.00  0.00     0.034 H 
ATOM     11  H9  <0> d           1.393   2.466   0.875  0.00  0.00     0.044 H 
ATOM     12  H10 <0> d           2.116   1.326  -0.170  0.00  0.00     0.044 H 
ATOM     13  H11 <0> d          -2.080   1.322  -0.121  0.00  0.00     0.044 H 
ATOM     14  H12 <0> d          -1.446   2.467   0.976  0.00  0.00     0.044 H 
ATOM     15  H13 <0> d          -2.196   3.616  -1.048  0.00  0.00     0.034 H 
ATOM     16  H14 <0> d          -1.273   2.484  -2.067  0.00  0.00     0.034 H 
ENDROOT
BRANCH   1  17
ATOM     17  C2  <0> d          -0.085   4.970  -2.033  0.00  0.00    -0.065 C 
ATOM     18  H4  <0> d           0.838   5.548  -1.984  0.00  0.00     0.033 H 
ATOM     19  H5  <0> d          -0.174   4.511  -3.017  0.00  0.00     0.033 H 
BRANCH  17  20
ATOM     20  C1  <0> d          -1.279   5.895  -1.792  0.00  0.00    -0.076 C 
ATOM     21  H1  <0> d          -2.202   5.317  -1.840  0.00  0.00     0.027 H 
ATOM     22  H2  <0> d          -1.190   6.355  -0.807  0.00  0.00     0.027 H 
ATOM     23  H3  <0> d          -1.297   6.673  -2.555  0.00  0.00     0.027 H 
ENDBRANCH  17  20
ENDBRANCH   1  17
TORSDOF 2
