REMARK  1 active torsions:
REMARK  status: ('A' for Active; 'I' for Inactive)
REMARK    1  A    between atoms: C6_8  and  C7_10 
ROOT
ATOM      1  C1  <0> d           1.429   1.661  -0.003  0.00  0.00    -0.022 C 
ATOM      2  C2  <0> d           1.446   2.455  -1.346  0.00  0.00     0.056 C 
ATOM      3  H1  <0> d           2.231   3.207  -1.440  0.00  0.00     0.089 H 
ATOM      4  C3  <0> d           1.416   1.387  -2.441  0.00  0.00    -0.077 C 
ATOM      5  C4  <0> d           0.168   0.898  -2.432  0.00  0.00    -0.076 C 
ATOM      6  C5  <0> d          -0.589   1.644  -1.331  0.00  0.00     0.068 C 
ATOM      7  H2  <0> d          -1.676   1.649  -1.411  0.00  0.00     0.091 H 
ATOM      8  C6  <0> d          -0.013   1.086   0.008  0.00  0.00     0.061 C 
ATOM      9  H3  <0> d           0.002  -0.004   0.002  0.00  0.00     0.061 H 
ATOM     10  O2  <0> d           0.067   2.955  -1.394  0.00  0.00    -0.372 OA
ATOM     11  H4  <0> d           1.590   2.326   0.846  0.00  0.00     0.038 H 
ATOM     12  H5  <0> d           2.168   0.860  -0.014  0.00  0.00     0.038 H 
ATOM     13  H6  <0> d           2.233   1.101  -3.088  0.00  0.00     0.080 H 
ATOM     14  H7  <0> d          -0.224   0.123  -3.075  0.00  0.00     0.080 H 
ENDROOT
BRANCH   8  15
ATOM     15  C7  <0> d          -0.791   1.605   1.189  0.00  0.00     0.179 C 
ATOM     16  O1  <0> d          -1.759   2.307   1.013  0.00  0.00    -0.648 OA
ATOM     17  O3  <0> d          -0.410   1.288   2.436  0.00  0.00    -0.648 OA
ENDBRANCH   8  15
TORSDOF 1
