REMARK  6 active torsions:
REMARK  status: ('A' for Active; 'I' for Inactive)
REMARK    1  A    between atoms: C1_1  and  C2_2 
REMARK    2  A    between atoms: C2_2  and  C3_3 
REMARK    3  A    between atoms: C3_3  and  C4_4 
REMARK    4  A    between atoms: C3_3  and  C6_6 
REMARK    5  A    between atoms: C4_4  and  C5_5 
REMARK    6  A    between atoms: C6_6  and  O1_7 
ROOT
ATOM      1  C3  <0> d           0.091   0.940   0.236  0.00  0.00    -0.034 C 
ATOM      2  H6  <0> d           0.170  -0.104   0.541  0.00  0.00     0.043 H 
ENDROOT
BRANCH   1   3
ATOM      3  C2  <0> d          -0.559   1.019  -1.147  0.00  0.00    -0.063 C 
ATOM      4  H4  <0> d          -1.586   0.658  -1.086  0.00  0.00     0.033 H 
ATOM      5  H5  <0> d          -0.557   2.054  -1.490  0.00  0.00     0.033 H 
BRANCH   3   6
ATOM      6  C1  <0> d           0.228   0.153  -2.132  0.00  0.00    -0.076 C 
ATOM      7  H1  <0> d           0.226  -0.881  -1.788  0.00  0.00     0.027 H 
ATOM      8  H2  <0> d          -0.235   0.210  -3.116  0.00  0.00     0.027 H 
ATOM      9  H3  <0> d           1.255   0.514  -2.192  0.00  0.00     0.027 H 
ENDBRANCH   3   6
ENDBRANCH   1   3
BRANCH   1  10
ATOM     10  C4  <0> d          -0.765   1.704   1.248  0.00  0.00    -0.063 C 
ATOM     11  H7  <0> d          -0.252   1.734   2.209  0.00  0.00     0.033 H 
ATOM     12  H8  <0> d          -0.928   2.720   0.891  0.00  0.00     0.033 H 
BRANCH  10  13
ATOM     13  C5  <0> d          -2.112   0.998   1.411  0.00  0.00    -0.076 C 
ATOM     14  H9  <0> d          -2.671   1.059   0.477  0.00  0.00     0.027 H 
ATOM     15  H10 <0> d          -1.946  -0.049   1.667  0.00  0.00     0.027 H 
ATOM     16  H11 <0> d          -2.681   1.480   2.207  0.00  0.00     0.027 H 
ENDBRANCH  10  13
ENDBRANCH   1  10
BRANCH   1  17
ATOM     17  C6  <0> d           1.489   1.560   0.178  0.00  0.00     0.020 C 
ATOM     18  H12 <0> d           2.073   1.068  -0.599  0.00  0.00     0.074 H 
ATOM     19  H13 <0> d           1.405   2.623  -0.049  0.00  0.00     0.074 H 
BRANCH  17  20
ATOM     20  O1  <0> d           2.137   1.393   1.441  0.00  0.00    -0.400 OA
ATOM     21  H14 <0> d           3.029   1.764   1.477  0.00  0.00     0.209 HD
ENDBRANCH  17  20
ENDBRANCH   1  17
TORSDOF 6
