REMARK  6 active torsions:
REMARK  status: ('A' for Active; 'I' for Inactive)
REMARK    1  A    between atoms: C1_1  and  C2_2 
REMARK    2  A    between atoms: C2_2  and  O1_3 
REMARK    3  A    between atoms: O1_3  and  C3_4 
REMARK    4  A    between atoms: C3_4  and  C4_6 
REMARK    5  A    between atoms: C4_6  and  C5_8 
REMARK    6  A    between atoms: C4_6  and  N1_9 
ROOT
ATOM      1  C3  <0> d           0.775  -1.794  -1.334  0.00  0.00     0.291 C 
ATOM      2  O2  <0> d           0.314  -2.540  -0.504  0.00  0.00    -0.263 OA
ENDROOT
BRANCH   1   3
ATOM      3  O1  <0> d           0.671  -0.465  -1.174  0.00  0.00    -0.320 OA
BRANCH   3   4
ATOM      4  C2  <0> d           0.002  -0.004   0.002  0.00  0.00     0.025 C 
ATOM      5  H5  <0> d           0.529  -0.365   0.885  0.00  0.00     0.074 H 
ATOM      6  H6  <0> d          -1.020  -0.381   0.010  0.00  0.00     0.074 H 
BRANCH   4   7
ATOM      7  C1  <0> d          -0.019   1.526   0.010  0.00  0.00    -0.056 C 
ATOM      8  H2  <0> d           1.004   1.903   0.003  0.00  0.00     0.030 H 
ATOM      9  H3  <0> d          -0.546   1.887  -0.873  0.00  0.00     0.030 H 
ATOM     10  H4  <0> d          -0.529   1.877   0.907  0.00  0.00     0.030 H 
ENDBRANCH   4   7
ENDBRANCH   3   4
ENDBRANCH   1   3
BRANCH   1  11
ATOM     11  C4  <0> d           1.468  -2.353  -2.550  0.00  0.00     0.209 C 
ATOM     12  H1  <0> d           1.198  -1.764  -3.426  0.00  0.00     0.103 H 
BRANCH  11  13
ATOM     13  C5  <0> d           2.983  -2.297  -2.345  0.00  0.00    -0.039 C 
ATOM     14  H7  <0> d           3.253  -2.887  -1.469  0.00  0.00     0.031 H 
ATOM     15  H8  <0> d           3.484  -2.703  -3.224  0.00  0.00     0.031 H 
ATOM     16  H9  <0> d           3.292  -1.263  -2.195  0.00  0.00     0.031 H 
ENDBRANCH  11  13
BRANCH  11  17
ATOM     17  N1  <0> d           1.052  -3.748  -2.751  0.00  0.00     0.092 N 
ATOM     18  H10 <0> d           1.292  -4.316  -1.952  0.00  0.00     0.313 HD
ATOM     19  H11 <0> d           0.065  -3.805  -2.953  0.00  0.00     0.313 HD
ENDBRANCH  11  17
ENDBRANCH   1  11
TORSDOF 6
