REMARK  3 active torsions:
REMARK  status: ('A' for Active; 'I' for Inactive)
REMARK    1  A    between atoms: C1_1  and  N1_2 
REMARK       I    between atoms: N1_2  and  C2_3 
REMARK       I    between atoms: C2_3  and  N2_5 
REMARK    2  A    between atoms: N2_5  and  C3_6 
REMARK    3  A    between atoms: C3_6  and  C4_7 
ROOT
ATOM      1  C3  <0> d           1.721   3.283  -0.590  0.00  0.00     0.021 C 
ATOM      2  H7  <0> d           1.344   3.313  -1.612  0.00  0.00     0.068 H 
ATOM      3  H8  <0> d           1.195   4.023   0.013  0.00  0.00     0.068 H 
ENDROOT
BRANCH   1   4
ATOM      4  N2  <0> d           3.155   3.583  -0.590  0.00  0.00    -0.341 N 
ATOM      5  C2  <0> d           3.596   4.764  -1.066  0.00  0.00     0.315 C 
ATOM      6  N1  <0> d           4.916   5.041  -1.066  0.00  0.00    -0.347 N 
ATOM      7  O1  <0> d           2.804   5.581  -1.495  0.00  0.00    -0.247 OA
ATOM      8  H5  <0> d           5.548   4.389  -0.723  0.00  0.00     0.163 HD
ATOM      9  H6  <0> d           3.787   2.932  -0.247  0.00  0.00     0.164 HD
BRANCH   6  10
ATOM     10  C1  <0> d           5.395   6.325  -1.583  0.00  0.00    -0.017 C 
ATOM     11  H2  <0> d           5.105   6.426  -2.629  0.00  0.00     0.056 H 
ATOM     12  H3  <0> d           4.956   7.137  -1.003  0.00  0.00     0.056 H 
ATOM     13  H4  <0> d           6.481   6.366  -1.502  0.00  0.00     0.056 H 
ENDBRANCH   6  10
ENDBRANCH   1   4
BRANCH   1  14
ATOM     14  C4  <0> d           1.492   1.889  -0.002  0.00  0.00     0.053 C 
ATOM     15  H1  <0> d           1.909   1.822   1.003  0.00  0.00     0.085 H 
ATOM     16  O2  <0> d           2.062   0.876  -0.858  0.00  0.00    -0.384 OA
ATOM     17  C7  <0> d           1.398  -0.360  -0.546  0.00  0.00     0.020 C 
ATOM     18  C6  <0> d           0.002  -0.004   0.002  0.00  0.00    -0.043 C 
ATOM     19  H13 <0> d           1.965  -0.904   0.209  0.00  0.00     0.074 H 
ATOM     20  H14 <0> d           1.299  -0.966  -1.446  0.00  0.00     0.074 H 
ATOM     21  C5  <0> d          -0.019   1.544   0.011  0.00  0.00    -0.037 C 
ATOM     22  H11 <0> d          -0.122  -0.393   1.013  0.00  0.00     0.036 H 
ATOM     23  H12 <0> d          -0.778  -0.393  -0.653  0.00  0.00     0.036 H 
ATOM     24  H9  <0> d          -0.514   1.931  -0.880  0.00  0.00     0.036 H 
ATOM     25  H10 <0> d          -0.497   1.921   0.915  0.00  0.00     0.036 H 
ENDBRANCH   1  14
TORSDOF 3
