REMARK  4 active torsions:
REMARK  status: ('A' for Active; 'I' for Inactive)
REMARK    1  A    between atoms: C1_1  and  C2_2 
REMARK    2  A    between atoms: C2_2  and  C3_3 
REMARK    3  A    between atoms: C3_3  and  N1_4 
REMARK    4  A    between atoms: C4_6  and  N5_9 
ROOT
ATOM      1  C3  <0> d           0.742  -0.511   1.242  0.00  0.00     0.037 C 
ATOM      2  H6  <0> d           1.765  -0.134   1.234  0.00  0.00     0.070 H 
ATOM      3  H7  <0> d           0.232  -0.159   2.138  0.00  0.00     0.070 H 
ENDROOT
BRANCH   1   4
ATOM      4  C2  <0> d           0.002  -0.004   0.002  0.00  0.00    -0.050 C 
ATOM      5  H4  <0> d          -1.020  -0.381   0.010  0.00  0.00     0.035 H 
ATOM      6  H5  <0> d           0.512  -0.356  -0.895  0.00  0.00     0.035 H 
BRANCH   4   7
ATOM      7  C1  <0> d          -0.019   1.526   0.010  0.00  0.00    -0.075 C 
ATOM      8  H1  <0> d           1.004   1.903   0.003  0.00  0.00     0.027 H 
ATOM      9  H2  <0> d          -0.546   1.887  -0.873  0.00  0.00     0.027 H 
ATOM     10  H3  <0> d          -0.529   1.877   0.907  0.00  0.00     0.027 H 
ENDBRANCH   4   7
ENDBRANCH   1   4
BRANCH   1  11
ATOM     11  N1  <0> d           0.762  -1.976   1.234  0.00  0.00    -0.154 N 
ATOM     12  N4  <0> d          -0.118  -2.757   1.761  0.00  0.00    -0.031 NA
ATOM     13  N3  <0> d           0.217  -3.982   1.560  0.00  0.00     0.065 NA
ATOM     14  C4  <0> d           1.365  -4.034   0.883  0.00  0.00     0.758 A 
ATOM     15  N2  <0> d           1.746  -2.794   0.655  0.00  0.00     0.041 NA
BRANCH  14  16
ATOM     16  N5  <0> d           2.039  -5.191   0.488  0.00  0.00    -0.228 N 
ATOM     17  H8  <0> d           2.873  -5.123  -0.003  0.00  0.00     0.174 HD
ATOM     18  H9  <0> d           1.675  -6.063   0.706  0.00  0.00     0.174 HD
ENDBRANCH  14  16
ENDBRANCH   1  11
TORSDOF 4
