REMARK  2 active torsions:
REMARK  status: ('A' for Active; 'I' for Inactive)
REMARK    1  A    between atoms: C1_1  and  O1_2 
REMARK    2  A    between atoms: O1_2  and  C2_3 
ROOT
ATOM      1  C2  <0> d           0.606  -0.607  -1.056  0.00  0.00     0.075 A 
ATOM      2  C3  <0> d           1.172   0.162  -2.061  0.00  0.00    -0.050 A 
ATOM      3  C4  <0> d           1.785  -0.452  -3.135  0.00  0.00    -0.080 A 
ATOM      4  C5  <0> d           1.834  -1.831  -3.206  0.00  0.00    -0.076 A 
ATOM      5  C6  <0> d           1.270  -2.604  -2.205  0.00  0.00    -0.049 A 
ATOM      6  C7  <0> d           0.660  -1.994  -1.126  0.00  0.00    -0.018 A 
ATOM      7  C8  <0> d           0.132  -3.045  -0.174  0.00  0.00    -0.037 C 
ATOM      8  C9  <0> d           0.102  -4.353  -0.993  0.00  0.00    -0.058 C 
ATOM      9  C10 <0> d           1.192  -4.108  -2.053  0.00  0.00    -0.040 C 
ATOM     10  H4  <0> d           1.133   1.240  -2.004  0.00  0.00     0.087 H 
ATOM     11  H5  <0> d           2.226   0.145  -3.919  0.00  0.00     0.083 H 
ATOM     12  H6  <0> d           2.314  -2.309  -4.048  0.00  0.00     0.084 H 
ATOM     13  H7  <0> d           0.799  -3.150   0.682  0.00  0.00     0.040 H 
ATOM     14  H8  <0> d          -0.873  -2.784   0.159  0.00  0.00     0.040 H 
ATOM     15  H9  <0> d           0.351  -5.209  -0.365  0.00  0.00     0.033 H 
ATOM     16  H10 <0> d          -0.868  -4.490  -1.469  0.00  0.00     0.033 H 
ATOM     17  H11 <0> d           0.918  -4.570  -3.002  0.00  0.00     0.040 H 
ATOM     18  H12 <0> d           2.145  -4.502  -1.701  0.00  0.00     0.040 H 
ENDROOT
BRANCH   1  19
ATOM     19  O1  <0> d           0.002  -0.004   0.002  0.00  0.00    -0.355 OA
BRANCH  19  20
ATOM     20  C1  <0> d          -0.017   1.425   0.010  0.00  0.00     0.010 C 
ATOM     21  H1  <0> d           1.005   1.802   0.002  0.00  0.00     0.066 H 
ATOM     22  H2  <0> d          -0.544   1.786  -0.873  0.00  0.00     0.066 H 
ATOM     23  H3  <0> d          -0.527   1.776   0.907  0.00  0.00     0.066 H 
ENDBRANCH  19  20
ENDBRANCH   1  19
TORSDOF 2
