REMARK  1 active torsions:
REMARK  status: ('A' for Active; 'I' for Inactive)
REMARK    1  A    between atoms: C5_5  and  O1_7 
ROOT
ATOM      1  C1  <0> d           1.157   3.452   0.009  0.00  0.00    -0.078 A 
ATOM      2  C2  <0> d          -0.037   4.142   0.024  0.00  0.00    -0.055 A 
ATOM      3  C3  <0> d          -1.239   3.446   0.031  0.00  0.00     0.065 A 
ATOM      4  C4  <0> d          -1.237   2.042   0.019  0.00  0.00     0.117 A 
ATOM      5  C5  <0> d          -0.016   1.355   0.009  0.00  0.00     0.096 A 
ATOM      6  C6  <0> d           1.168   2.065   0.002  0.00  0.00    -0.049 A 
ATOM      7  N1  <0> d          -2.536   1.644   0.035  0.00  0.00    -0.239 NA
ATOM      8  C7  <0> d          -3.313   2.687   0.047  0.00  0.00     0.065 A 
ATOM      9  N2  <0> d          -2.567   3.825   0.046  0.00  0.00    -0.349 N 
ATOM     10  H1  <0> d          -2.915   4.763   0.054  0.00  0.00     0.167 HD
ATOM     11  H2  <0> d           2.090   3.996   0.004  0.00  0.00     0.083 H 
ATOM     12  H3  <0> d          -0.037   5.222   0.029  0.00  0.00     0.087 H 
ATOM     13  H4  <0> d           2.110   1.537  -0.010  0.00  0.00     0.087 H 
ATOM     14  H6  <0> d          -4.392   2.654   0.057  0.00  0.00     0.143 H 
ENDROOT
BRANCH   5  15
ATOM     15  O1  <0> d           0.002  -0.004   0.002  0.00  0.00    -0.358 OA
ATOM     16  H5  <0> d           0.016  -0.402   0.883  0.00  0.00     0.217 HD
ENDBRANCH   5  15
TORSDOF 1
