REMARK  2 active torsions:
REMARK  status: ('A' for Active; 'I' for Inactive)
REMARK    1  A    between atoms: C3_3  and  N1_9 
REMARK    2  A    between atoms: C4_4  and  O1_8 
ROOT
ATOM      1  C1  <0> d           1.228  -2.065  -0.020  0.00  0.00    -0.060 A 
ATOM      2  C2  <0> d           1.211  -0.683  -0.013  0.00  0.00    -0.053 A 
ATOM      3  C3  <0> d           0.002  -0.004   0.002  0.00  0.00     0.059 A 
ATOM      4  C4  <0> d          -1.194  -0.719   0.015  0.00  0.00     0.093 A 
ATOM      5  C5  <0> d          -1.170  -2.103   0.003  0.00  0.00    -0.028 A 
ATOM      6  C6  <0> d           0.041  -2.774  -0.012  0.00  0.00     0.036 A 
ATOM      7 Cl1  <0> d           0.068  -4.510  -0.020  0.00  0.00    -0.084 Cl
ATOM      8  H1  <0> d           2.171  -2.593  -0.032  0.00  0.00     0.086 H 
ATOM      9  H2  <0> d           2.140  -0.131  -0.019  0.00  0.00     0.087 H 
ATOM     10  H3  <0> d          -2.096  -2.659   0.009  0.00  0.00     0.090 H 
ENDROOT
BRANCH   3  11
ATOM     11  N1  <0> d          -0.017   1.396   0.010  0.00  0.00    -0.397 N 
ATOM     12  H5  <0> d           0.816   1.893   0.004  0.00  0.00     0.156 HD
ATOM     13  H6  <0> d          -0.864   1.870   0.016  0.00  0.00     0.156 HD
ENDBRANCH   3  11
BRANCH   4  14
ATOM     14  O1  <0> d          -2.383  -0.058   0.036  0.00  0.00    -0.358 OA
ATOM     15  H4  <0> d          -2.739   0.138  -0.841  0.00  0.00     0.217 HD
ENDBRANCH   4  14
TORSDOF 2
