REMARK  4 active torsions:
REMARK  status: ('A' for Active; 'I' for Inactive)
REMARK    1  A    between atoms: C4_5  and  C8_10 
REMARK    2  A    between atoms: C4_5  and  C9_12 
REMARK    3  A    between atoms: C8_10  and  O1_11 
REMARK    4  A    between atoms: C9_12  and  O2_13 
ROOT
ATOM      1  C1  <0> d           2.149   5.142   0.756  0.00  0.00    -0.051 C 
ATOM      2  C2  <0> d           1.472   4.462   2.002  0.00  0.00    -0.036 C 
ATOM      3  H1  <0> d           1.092   5.129   2.777  0.00  0.00     0.046 H 
ATOM      4  C3  <0> d           0.417   3.556   1.290  0.00  0.00    -0.047 C 
ATOM      5  C4  <0> d           1.145   3.085   0.008  0.00  0.00     0.010 C 
ATOM      6  C5  <0> d           2.547   3.766   0.107  0.00  0.00    -0.026 C 
ATOM      7  H2  <0> d           3.129   3.810  -0.814  0.00  0.00     0.047 H 
ATOM      8  C6  <0> d           3.206   3.089   1.315  0.00  0.00    -0.101 C 
ATOM      9  C7  <0> d           2.586   3.490   2.407  0.00  0.00    -0.102 C 
ATOM     10  H3  <0> d           1.438   5.701   0.148  0.00  0.00     0.035 H 
ATOM     11  H4  <0> d           3.017   5.742   1.029  0.00  0.00     0.035 H 
ATOM     12  H5  <0> d          -0.473   4.132   1.037  0.00  0.00     0.035 H 
ATOM     13  H6  <0> d           0.158   2.704   1.919  0.00  0.00     0.035 H 
ATOM     14  H7  <0> d           4.037   2.400   1.277  0.00  0.00     0.077 H 
ATOM     15  H8  <0> d           2.824   3.185   3.416  0.00  0.00     0.076 H 
ENDROOT
BRANCH   5  16
ATOM     16  C8  <0> d           1.286   1.562  -0.002  0.00  0.00     0.026 C 
ATOM     17  H9  <0> d           1.840   1.243   0.881  0.00  0.00     0.075 H 
ATOM     18  H10 <0> d           1.823   1.252  -0.899  0.00  0.00     0.075 H 
BRANCH  16  19
ATOM     19  O1  <0> d          -0.011   0.963   0.007  0.00  0.00    -0.400 OA
ATOM     20  H11 <0> d           0.002  -0.004   0.002  0.00  0.00     0.209 HD
ENDBRANCH  16  19
ENDBRANCH   5  16
BRANCH   5  21
ATOM     21  C9  <0> d           0.399   3.562  -1.240  0.00  0.00     0.026 C 
ATOM     22  H12 <0> d           0.297   4.647  -1.210  0.00  0.00     0.075 H 
ATOM     23  H13 <0> d           0.958   3.275  -2.130  0.00  0.00     0.075 H 
BRANCH  21  24
ATOM     24  O2  <0> d          -0.898   2.963  -1.278  0.00  0.00    -0.400 OA
ATOM     25  H14 <0> d          -1.428   3.221  -2.044  0.00  0.00     0.209 HD
ENDBRANCH  21  24
ENDBRANCH   5  21
TORSDOF 4
