REMARK  2 active torsions:
REMARK  status: ('A' for Active; 'I' for Inactive)
REMARK    1  A    between atoms: C2_2  and  C3_3 
REMARK    2  A    between atoms: C3_3  and  C4_4 
ROOT
ATOM      1  C1  <0> d           0.018  -1.178  -0.004  0.00  0.00    -0.154 C 
ATOM      2  C2  <0> d           0.002  -0.004   0.002  0.00  0.00    -0.117 C 
ATOM      3  H1  <0> d           0.032  -2.228  -0.010  0.00  0.00     0.166 H 
ENDROOT
BRANCH   2   4
ATOM      4  C3  <0> d          -0.018   1.468   0.010  0.00  0.00    -0.007 C 
ATOM      5  H2  <0> d          -0.545   1.829  -0.873  0.00  0.00     0.052 H 
ATOM      6  H3  <0> d          -0.528   1.819   0.907  0.00  0.00     0.052 H 
BRANCH   4   7
ATOM      7  C4  <0> d           1.417   1.997  -0.001  0.00  0.00    -0.044 C 
ATOM      8  C8  <0> d           1.427   3.534   0.133  0.00  0.00    -0.061 C 
ATOM      9  C7  <0> d           2.560   4.048  -0.773  0.00  0.00    -0.065 C 
ATOM     10  H11 <0> d           0.472   3.943  -0.195  0.00  0.00     0.033 H 
ATOM     11  H12 <0> d           1.619   3.817   1.168  0.00  0.00     0.033 H 
ATOM     12  C6  <0> d           3.199   2.805  -1.426  0.00  0.00    -0.065 C 
ATOM     13  H9  <0> d           3.302   4.580  -0.178  0.00  0.00     0.033 H 
ATOM     14  H10 <0> d           2.154   4.706  -1.541  0.00  0.00     0.033 H 
ATOM     15  C5  <0> d           2.083   1.732  -1.374  0.00  0.00    -0.061 C 
ATOM     16  H7  <0> d           4.069   2.479  -0.856  0.00  0.00     0.033 H 
ATOM     17  H8  <0> d           3.476   3.017  -2.459  0.00  0.00     0.033 H 
ATOM     18  H5  <0> d           2.509   0.729  -1.409  0.00  0.00     0.033 H 
ATOM     19  H6  <0> d           1.368   1.878  -2.184  0.00  0.00     0.033 H 
ATOM     20  H4  <0> d           1.998   1.541   0.801  0.00  0.00     0.041 H 
ENDBRANCH   4   7
ENDBRANCH   2   4
TORSDOF 2
