REMARK  2 active torsions:
REMARK  status: ('A' for Active; 'I' for Inactive)
REMARK    1  A    between atoms: C1_1  and  C2_2 
REMARK    2  A    between atoms: C2_2  and  C3_4 
ROOT
ATOM      1  C3  <0> d          -1.268   0.580   2.240  0.00  0.00     0.011 C 
ATOM      2  H1  <0> d          -1.520  -0.263   1.764  0.00  0.00     0.052 H 
ATOM      3  C4  <0> d          -0.236   0.301   3.360  0.00  0.00    -0.048 C 
ATOM      4  C5  <0> d          -0.968   0.777   4.659  0.00  0.00    -0.037 C 
ATOM      5  H2  <0> d          -0.351   0.940   5.542  0.00  0.00     0.046 H 
ATOM      6  C6  <0> d          -1.750   2.024   4.106  0.00  0.00    -0.052 C 
ATOM      7  C7  <0> d          -2.490   1.184   3.001  0.00  0.00    -0.027 C 
ATOM      8  H3  <0> d          -3.231   1.702   2.391  0.00  0.00     0.047 H 
ATOM      9  C8  <0> d          -3.007   0.023   3.859  0.00  0.00    -0.102 C 
ATOM     10  C9  <0> d          -2.130  -0.212   4.814  0.00  0.00    -0.102 C 
ATOM     11  H7  <0> d          -0.008  -0.764   3.414  0.00  0.00     0.035 H 
ATOM     12  H8  <0> d           0.673   0.880   3.197  0.00  0.00     0.035 H 
ATOM     13  H9  <0> d          -1.087   2.778   3.682  0.00  0.00     0.035 H 
ATOM     14  H10 <0> d          -2.437   2.446   4.840  0.00  0.00     0.035 H 
ATOM     15  H11 <0> d          -3.933  -0.512   3.706  0.00  0.00     0.077 H 
ATOM     16  H12 <0> d          -2.215  -0.972   5.577  0.00  0.00     0.076 H 
ENDROOT
BRANCH   1  17
ATOM     17  C2  <0> d          -0.718   1.572   1.248  0.00  0.00     0.128 C 
ATOM     18  O1  <0> d          -0.843   2.756   1.447  0.00  0.00    -0.298 OA
BRANCH  17  19
ATOM     19  C1  <0> d          -0.013   1.086   0.008  0.00  0.00    -0.021 C 
ATOM     20  H4  <0> d           0.001   0.086   0.003  0.00  0.00     0.037 H 
ATOM     21  H5  <0> d           1.010   1.463   0.000  0.00  0.00     0.037 H 
ATOM     22  H6  <0> d          -0.540   1.447  -0.875  0.00  0.00     0.037 H 
ENDBRANCH  17  19
ENDBRANCH   1  17
TORSDOF 2
