REMARK  1 active torsions:
REMARK  status: ('A' for Active; 'I' for Inactive)
REMARK    1  A    between atoms: C1_1  and  C2_2 
REMARK       I    between atoms: C2_2  and  N1_4 
ROOT
ATOM      1  C2  <0> d           0.002  -0.004   0.002  0.00  0.00     0.216 C 
ATOM      2  O1  <0> d           1.060  -0.596  -0.011  0.00  0.00    -0.274 OA
ATOM      3  N1  <0> d          -0.016   1.344   0.009  0.00  0.00    -0.339 N 
ATOM      4  C3  <0> d          -1.049   2.391   0.018  0.00  0.00     0.054 C 
ATOM      5  C4  <0> d          -0.049   3.302  -0.653  0.00  0.00     0.162 C 
ATOM      6  O2  <0> d          -0.069   4.270  -1.374  0.00  0.00    -0.294 OA
ATOM      7  C5  <0> d           0.988   2.419   0.006  0.00  0.00     0.054 C 
ATOM      8  H4  <0> d          -1.861   2.063  -0.465  0.00  0.00     0.076 H 
ATOM      9  H5  <0> d          -1.330   2.717   1.020  0.00  0.00     0.076 H 
ATOM     10  H6  <0> d           1.299   2.588   0.941  0.00  0.00     0.076 H 
ATOM     11  H7  <0> d           1.848   2.209  -0.631  0.00  0.00     0.076 H 
ENDROOT
BRANCH   1  12
ATOM     12  C1  <0> d          -1.293  -0.775   0.010  0.00  0.00    -0.003 C 
ATOM     13  H1  <0> d          -2.131  -0.078   0.022  0.00  0.00     0.040 H 
ATOM     14  H2  <0> d          -1.350  -1.398  -0.883  0.00  0.00     0.040 H 
ATOM     15  H3  <0> d          -1.333  -1.407   0.897  0.00  0.00     0.040 H 
ENDBRANCH   1  12
TORSDOF 1
