REMARK  2 active torsions:
REMARK  status: ('A' for Active; 'I' for Inactive)
REMARK    1  A    between atoms: C2_2  and  C3_3 
REMARK    2  A    between atoms: C5_5  and  N2_9 
ROOT
ATOM      1  C1  <0> d           0.018  -1.178  -0.004  0.00  0.00    -0.149 C 
ATOM      2  C2  <0> d           0.002  -0.004   0.002  0.00  0.00    -0.076 C 
ATOM      3  H1  <0> d           0.032  -2.228  -0.010  0.00  0.00     0.166 H 
ENDROOT
BRANCH   2   4
ATOM      4  C3  <0> d          -0.017   1.428   0.010  0.00  0.00     0.036 A 
ATOM      5  C7  <0> d           1.175   2.153   0.002  0.00  0.00     0.020 A 
ATOM      6  N1  <0> d           1.162   3.470   0.005  0.00  0.00    -0.269 NA
ATOM      7  H4  <0> d           2.119   1.628  -0.010  0.00  0.00     0.117 H 
ATOM      8  C6  <0> d           0.037   4.156   0.025  0.00  0.00     0.027 A 
ATOM      9  C5  <0> d          -1.195   3.511   0.038  0.00  0.00     0.044 A 
ATOM     10  H3  <0> d           0.072   5.236   0.030  0.00  0.00     0.118 H 
ATOM     11  C4  <0> d          -1.231   2.121   0.031  0.00  0.00    -0.037 A 
ATOM     12  H2  <0> d          -2.172   1.592   0.041  0.00  0.00     0.089 H 
BRANCH   9  13
ATOM     13  N2  <0> d          -2.381   4.250   0.059  0.00  0.00    -0.398 N 
ATOM     14  H5  <0> d          -3.236   3.794   0.068  0.00  0.00     0.156 HD
ATOM     15  H6  <0> d          -2.348   5.220   0.064  0.00  0.00     0.156 HD
ENDBRANCH   9  13
ENDBRANCH   2   4
TORSDOF 2
