REMARK  3 active torsions:
REMARK  status: ('A' for Active; 'I' for Inactive)
REMARK    1  A    between atoms: C1_1  and  C2_2 
REMARK    2  A    between atoms: C2_2  and  O1_3 
REMARK    3  A    between atoms: O1_3  and  C3_4 
ROOT
ATOM      1  C3  <0> d          -1.224   1.753   0.017  0.00  0.00     0.071 A 
ATOM      2  C4  <0> d          -0.013   1.076   0.008  0.00  0.00    -0.051 A 
ATOM      3  C5  <0> d           1.174   1.783   0.000  0.00  0.00    -0.077 A 
ATOM      4  C6  <0> d           1.157   3.165   0.007  0.00  0.00    -0.045 A 
ATOM      5  C7  <0> d          -0.049   3.845   0.022  0.00  0.00     0.119 A 
ATOM      6  C8  <0> d          -1.240   3.140   0.030  0.00  0.00    -0.014 A 
ATOM      7  F1  <0> d          -0.064   5.196   0.028  0.00  0.00    -0.206 F 
ATOM      8  H6  <0> d           0.002  -0.004   0.002  0.00  0.00     0.087 H 
ATOM      9  H7  <0> d           2.116   1.255  -0.011  0.00  0.00     0.083 H 
ATOM     10  H8  <0> d           2.086   3.716   0.000  0.00  0.00     0.088 H 
ATOM     11  H9  <0> d          -2.182   3.669   0.043  0.00  0.00     0.092 H 
ENDROOT
BRANCH   1  12
ATOM     12  O1  <0> d          -2.392   1.059   0.019  0.00  0.00    -0.351 OA
BRANCH  12  13
ATOM     13  C2  <0> d          -3.600   1.822   0.029  0.00  0.00     0.023 C 
ATOM     14  H4  <0> d          -3.629   2.445   0.922  0.00  0.00     0.074 H 
ATOM     15  H5  <0> d          -3.637   2.455  -0.857  0.00  0.00     0.074 H 
BRANCH  13  16
ATOM     16  C1  <0> d          -4.801   0.874   0.029  0.00  0.00    -0.056 C 
ATOM     17  H1  <0> d          -4.773   0.251  -0.864  0.00  0.00     0.030 H 
ATOM     18  H2  <0> d          -4.764   0.241   0.916  0.00  0.00     0.030 H 
ATOM     19  H3  <0> d          -5.723   1.456   0.037  0.00  0.00     0.030 H 
ENDBRANCH  13  16
ENDBRANCH  12  13
ENDBRANCH   1  12
TORSDOF 3
