REMARK  2 active torsions:
REMARK  status: ('A' for Active; 'I' for Inactive)
REMARK    1  A    between atoms: C2_2  and  N3_11 
REMARK    2  A    between atoms: N1_4  and  C4_6 
ROOT
ATOM      1  C4  <0> d           1.734   3.165   0.002  0.00  0.00     0.034 C 
ATOM      2  C5  <0> d           3.045   3.320  -0.798  0.00  0.00    -0.044 C 
ATOM      3  C6  <0> d           3.846   4.387  -0.009  0.00  0.00    -0.063 C 
ATOM      4  C7  <0> d           3.524   4.036   1.465  0.00  0.00    -0.063 C 
ATOM      5  C8  <0> d           2.039   3.621   1.440  0.00  0.00    -0.044 C 
ATOM      6  H3  <0> d           0.898   3.722  -0.446  0.00  0.00     0.075 H 
ATOM      7  H4  <0> d           3.568   2.354  -0.834  0.00  0.00     0.036 H 
ATOM      8  H5  <0> d           2.813   3.651  -1.821  0.00  0.00     0.036 H 
ATOM      9  H6  <0> d           4.916   4.290  -0.245  0.00  0.00     0.033 H 
ATOM     10  H7  <0> d           3.497   5.391  -0.293  0.00  0.00     0.033 H 
ATOM     11  H8  <0> d           4.177   3.216   1.797  0.00  0.00     0.033 H 
ATOM     12  H9  <0> d           3.695   4.920   2.097  0.00  0.00     0.033 H 
ATOM     13  H10 <0> d           1.390   4.469   1.701  0.00  0.00     0.036 H 
ATOM     14  H11 <0> d           1.853   2.789   2.135  0.00  0.00     0.036 H 
ENDROOT
BRANCH   1  15
ATOM     15  N1  <0> d           1.308   1.764  -0.001  0.00  0.00    -0.274 N 
ATOM     16  C3  <0> d           2.126   0.678  -0.015  0.00  0.00     0.025 A 
ATOM     17  C2  <0> d           1.339  -0.428  -0.013  0.00  0.00     0.062 A 
ATOM     18  H2  <0> d           3.206   0.692  -0.025  0.00  0.00     0.117 H 
ATOM     19  C1  <0> d           0.002  -0.004   0.002  0.00  0.00     0.048 A 
ATOM     20  N2  <0> d          -0.016   1.304   0.009  0.00  0.00    -0.183 NA
ATOM     21  H1  <0> d          -0.865  -0.648   0.007  0.00  0.00     0.121 H 
BRANCH  17  22
ATOM     22  N3  <0> d           1.785  -1.763  -0.025  0.00  0.00    -0.397 N 
ATOM     23  H12 <0> d           2.863  -1.983  -0.036  0.00  0.00     0.156 HD
ATOM     24  H13 <0> d           1.056  -2.587  -0.023  0.00  0.00     0.156 HD
ENDBRANCH  17  22
ENDBRANCH   1  15
TORSDOF 2
