REMARK  4 active torsions:
REMARK  status: ('A' for Active; 'I' for Inactive)
REMARK    1  A    between atoms: C1_1  and  C2_2 
REMARK    2  A    between atoms: C2_2  and  C4_4 
REMARK    3  A    between atoms: C4_4  and  N1_5 
REMARK       I    between atoms: N1_5  and  C5_6 
REMARK    4  A    between atoms: C5_6  and  C6_8 
ROOT
ATOM      1  C4  <0> d           2.422   1.183  -0.015  0.00  0.00     0.014 C 
ATOM      2  H6  <0> d           2.497   0.553   0.871  0.00  0.00     0.070 H 
ATOM      3  H7  <0> d           2.480   0.562  -0.909  0.00  0.00     0.070 H 
ENDROOT
BRANCH   1   4
ATOM      4  C2  <0> d           3.554   2.178  -0.020  0.00  0.00    -0.075 C 
ATOM      5  C3  <0> d           4.122   2.530   1.107  0.00  0.00    -0.118 C 
ATOM      6  H4  <0> d           4.933   3.243   1.103  0.00  0.00     0.067 H 
ATOM      7  H5  <0> d           3.779   2.107   2.039  0.00  0.00     0.067 H 
BRANCH   4   8
ATOM      8  C1  <0> d           4.032   2.768  -1.322  0.00  0.00    -0.054 C 
ATOM      9  H1  <0> d           3.212   3.300  -1.803  0.00  0.00     0.033 H 
ATOM     10  H2  <0> d           4.851   3.461  -1.127  0.00  0.00     0.033 H 
ATOM     11  H3  <0> d           4.381   1.969  -1.976  0.00  0.00     0.033 H 
ENDBRANCH   4   8
ENDBRANCH   1   4
BRANCH   1  12
ATOM     12  N1  <0> d           1.143   1.898   0.001  0.00  0.00    -0.357 N 
ATOM     13  C5  <0> d          -0.014   1.209   0.009  0.00  0.00     0.213 C 
ATOM     14  O1  <0> d           0.002  -0.004   0.002  0.00  0.00    -0.274 OA
ATOM     15  H8  <0> d           1.130   2.868   0.007  0.00  0.00     0.162 HD
BRANCH  13  16
ATOM     16  C6  <0> d          -1.330   1.944   0.019  0.00  0.00    -0.003 C 
ATOM     17  H9  <0> d          -2.148   1.225   0.019  0.00  0.00     0.040 H 
ATOM     18  H10 <0> d          -1.392   2.565   0.913  0.00  0.00     0.040 H 
ATOM     19  H11 <0> d          -1.400   2.575  -0.867  0.00  0.00     0.040 H 
ENDBRANCH  13  16
ENDBRANCH   1  12
TORSDOF 4
