REMARK  5 active torsions:
REMARK  status: ('A' for Active; 'I' for Inactive)
REMARK    1  A    between atoms: C1_1  and  C2_2 
REMARK    2  A    between atoms: C4_4  and  O2_10 
REMARK    3  A    between atoms: C6_6  and  C8_9 
REMARK    4  A    between atoms: C7_7  and  O1_8 
REMARK    5  A    between atoms: O2_10  and  C9_11 
ROOT
ATOM      1  C2  <0> d          -1.218   1.750   0.017  0.00  0.00    -0.026 A 
ATOM      2  C3  <0> d          -0.013   1.076   0.008  0.00  0.00    -0.042 A 
ATOM      3  C4  <0> d           1.179   1.786   0.000  0.00  0.00     0.069 A 
ATOM      4  C5  <0> d           1.160   3.172   0.008  0.00  0.00    -0.042 A 
ATOM      5  C6  <0> d          -0.045   3.847   0.022  0.00  0.00    -0.026 A 
ATOM      6  C7  <0> d          -1.237   3.137   0.029  0.00  0.00     0.077 A 
ATOM      7  H4  <0> d           0.002  -0.004   0.002  0.00  0.00     0.088 H 
ATOM      8  H5  <0> d           2.088   3.725   0.003  0.00  0.00     0.088 H 
ENDROOT
BRANCH   3   9
ATOM      9  O2  <0> d           2.366   1.122  -0.014  0.00  0.00    -0.356 OA
BRANCH   9  10
ATOM     10  C9  <0> d           3.554   1.916  -0.021  0.00  0.00     0.010 C 
ATOM     11  H10 <0> d           3.562   2.550  -0.908  0.00  0.00     0.066 H 
ATOM     12  H11 <0> d           3.578   2.541   0.872  0.00  0.00     0.066 H 
ATOM     13  H12 <0> d           4.427   1.264  -0.033  0.00  0.00     0.066 H 
ENDBRANCH   9  10
ENDBRANCH   3   9
BRANCH   1  14
ATOM     14  C1  <0> d          -2.513   0.979   0.019  0.00  0.00    -0.049 C 
ATOM     15  H1  <0> d          -2.820   0.787   1.047  0.00  0.00     0.033 H 
ATOM     16  H2  <0> d          -3.283   1.560  -0.488  0.00  0.00     0.033 H 
ATOM     17  H3  <0> d          -2.372   0.031  -0.500  0.00  0.00     0.033 H 
ENDBRANCH   1  14
BRANCH   5  18
ATOM     18  C8  <0> d          -0.066   5.354   0.030  0.00  0.00    -0.049 C 
ATOM     19  H7  <0> d          -0.080   5.722  -0.996  0.00  0.00     0.033 H 
ATOM     20  H8  <0> d          -0.956   5.702   0.554  0.00  0.00     0.033 H 
ATOM     21  H9  <0> d           0.824   5.726   0.538  0.00  0.00     0.033 H 
ENDBRANCH   5  18
BRANCH   6  22
ATOM     22  O1  <0> d          -2.424   3.801   0.043  0.00  0.00    -0.360 OA
ATOM     23  H6  <0> d          -2.774   3.997  -0.837  0.00  0.00     0.217 HD
ENDBRANCH   6  22
TORSDOF 5
