REMARK  2 active torsions:
REMARK  status: ('A' for Active; 'I' for Inactive)
REMARK    1  A    between atoms: C1_1  and  C2_2 
REMARK    2  A    between atoms: C3_3  and  C5_7 
ROOT
ATOM      1  C2  <0> d           1.242   1.755  -0.000  0.00  0.00     0.073 A 
ATOM      2  C3  <0> d           2.067   0.668  -0.014  0.00  0.00     0.177 A 
ATOM      3  O1  <0> d           1.270  -0.426  -0.012  0.00  0.00    -0.295 OA
ATOM      4  C4  <0> d           0.002  -0.004   0.002  0.00  0.00     0.104 A 
ATOM      5  N1  <0> d          -0.016   1.302   0.009  0.00  0.00    -0.239 NA
ATOM      6  H4  <0> d          -0.870  -0.642   0.006  0.00  0.00     0.155 H 
ENDROOT
BRANCH   1   7
ATOM      7  C1  <0> d           1.670   3.200   0.004  0.00  0.00    -0.033 C 
ATOM      8  H1  <0> d           1.783   3.542   1.032  0.00  0.00     0.035 H 
ATOM      9  H2  <0> d           2.621   3.298  -0.519  0.00  0.00     0.035 H 
ATOM     10  H3  <0> d           0.914   3.804  -0.499  0.00  0.00     0.035 H 
ENDBRANCH   1   7
BRANCH   2  11
ATOM     11  C5  <0> d           3.533   0.683  -0.028  0.00  0.00     0.236 C 
ATOM     12  O2  <0> d           4.130   1.742  -0.028  0.00  0.00    -0.642 OA
ATOM     13  O3  <0> d           4.219  -0.478  -0.039  0.00  0.00    -0.642 OA
ENDBRANCH   2  11
TORSDOF 2
