REMARK  2 active torsions:
REMARK  status: ('A' for Active; 'I' for Inactive)
REMARK    1  A    between atoms: C3_3  and  C6_10 
REMARK       I    between atoms: N1_5  and  C5_7 
REMARK       I    between atoms: C5_7  and  N2_9 
REMARK    2  A    between atoms: C6_10  and  O2_11 
ROOT
ATOM      1  C1  <0> d          -0.019   1.545   0.011  0.00  0.00    -0.048 C 
ATOM      2  C2  <0> d           1.497   1.877  -0.002  0.00  0.00    -0.043 C 
ATOM      3  C3  <0> d           2.105   0.750   0.860  0.00  0.00     0.036 C 
ATOM      4  H1  <0> d           2.250   1.102   1.881  0.00  0.00     0.076 H 
ATOM      5  N1  <0> d           1.153  -0.370   0.847  0.00  0.00    -0.328 N 
ATOM      6  C4  <0> d           0.002  -0.004   0.002  0.00  0.00    -0.000 C 
ATOM      7  C5  <0> d           1.308  -1.540   1.499  0.00  0.00     0.316 C 
ATOM      8  O1  <0> d           2.304  -1.734   2.170  0.00  0.00    -0.247 OA
ATOM      9  N2  <0> d           0.360  -2.493   1.408  0.00  0.00    -0.352 N 
ATOM     10  H2  <0> d          -0.494   1.924   0.915  0.00  0.00     0.035 H 
ATOM     11  H3  <0> d          -0.512   1.934  -0.881  0.00  0.00     0.035 H 
ATOM     12  H4  <0> d           1.891   1.841  -1.018  0.00  0.00     0.036 H 
ATOM     13  H5  <0> d           1.682   2.851   0.450  0.00  0.00     0.036 H 
ATOM     14  H6  <0> d          -0.921  -0.398   0.427  0.00  0.00     0.064 H 
ATOM     15  H7  <0> d           0.143  -0.376  -1.013  0.00  0.00     0.064 H 
ATOM     16  H8  <0> d          -0.434  -2.338   0.873  0.00  0.00     0.160 HD
ATOM     17  H9  <0> d           0.472  -3.335   1.877  0.00  0.00     0.160 HD
ENDROOT
BRANCH   3  18
ATOM     18  C6  <0> d           3.444   0.307   0.267  0.00  0.00     0.036 C 
ATOM     19  H10 <0> d           3.277  -0.142  -0.712  0.00  0.00     0.077 H 
ATOM     20  H11 <0> d           4.099   1.172   0.164  0.00  0.00     0.077 H 
BRANCH  18  21
ATOM     21  O2  <0> d           4.054  -0.652   1.133  0.00  0.00    -0.399 OA
ATOM     22  H12 <0> d           4.908  -0.978   0.819  0.00  0.00     0.209 HD
ENDBRANCH  18  21
ENDBRANCH   3  18
TORSDOF 2
