REMARK  1 active torsions:
REMARK  status: ('A' for Active; 'I' for Inactive)
REMARK    1  A    between atoms: C5_8  and  C6_9 
ROOT
ATOM      1  C1  <0> d          -3.097   3.080  -0.403  0.00  0.00    -0.056 C 
ATOM      2  C2  <0> d          -1.905   3.962   0.040  0.00  0.00    -0.037 C 
ATOM      3  C3  <0> d          -0.709   3.035   0.024  0.00  0.00    -0.002 A 
ATOM      4  C4  <0> d          -1.115   1.746   0.016  0.00  0.00     0.036 A 
ATOM      5  N1  <0> d          -0.011   0.966   0.007  0.00  0.00    -0.281 N 
ATOM      6  H1  <0> d           0.003  -0.034   0.006  0.00  0.00     0.189 HD
ATOM      7  N2  <0> d           1.110   1.805   0.001  0.00  0.00    -0.173 NA
ATOM      8  C5  <0> d           0.693   3.044   0.011  0.00  0.00     0.127 A 
ATOM      9  C7  <0> d          -2.627   1.672   0.023  0.00  0.00    -0.024 C 
ATOM     10  H2  <0> d          -3.247   3.132  -1.481  0.00  0.00     0.034 H 
ATOM     11  H3  <0> d          -4.005   3.365   0.129  0.00  0.00     0.034 H 
ATOM     12  H4  <0> d          -2.066   4.356   1.044  0.00  0.00     0.040 H 
ATOM     13  H5  <0> d          -1.763   4.777  -0.670  0.00  0.00     0.040 H 
ATOM     14  H7  <0> d          -2.973   0.925  -0.692  0.00  0.00     0.042 H 
ATOM     15  H8  <0> d          -2.990   1.438   1.023  0.00  0.00     0.042 H 
ENDROOT
BRANCH   8  16
ATOM     16  C6  <0> d           1.569   4.270   0.009  0.00  0.00     0.252 C 
ATOM     17  F1  <0> d           1.292   5.039  -1.127  0.00  0.00    -0.207 F 
ATOM     18  F2  <0> d           1.314   5.027   1.157  0.00  0.00    -0.207 F 
ATOM     19  H6  <0> d           2.616   3.969  -0.003  0.00  0.00     0.155 H 
ENDBRANCH   8  16
TORSDOF 1
