REMARK  3 active torsions:
REMARK  status: ('A' for Active; 'I' for Inactive)
REMARK    1  A    between atoms: C1_1  and  C2_2 
REMARK    2  A    between atoms: C2_2  and  C3_3 
REMARK    3  A    between atoms: C3_3  and  C4_5 
ROOT
ATOM      1  C4  <0> d          -1.667  -2.011   0.007  0.00  0.00     0.061 C 
ATOM      2  H1  <0> d          -0.894  -2.517   0.586  0.00  0.00     0.063 H 
ATOM      3  C5  <0> d          -3.042  -2.299   0.620  0.00  0.00    -0.049 C 
ATOM      4  C6  <0> d          -3.356  -3.790   0.484  0.00  0.00    -0.064 C 
ATOM      5  C7  <0> d          -3.456  -4.166  -0.995  0.00  0.00    -0.059 C 
ATOM      6  C8  <0> d          -2.097  -3.948  -1.669  0.00  0.00    -0.009 C 
ATOM      7  C9  <0> d          -1.653  -2.523  -1.416  0.00  0.00     0.138 C 
ATOM      8  O2  <0> d          -1.303  -1.812  -2.327  0.00  0.00    -0.297 OA
ATOM      9  H7  <0> d          -3.034  -2.024   1.675  0.00  0.00     0.034 H 
ATOM     10  H8  <0> d          -3.801  -1.718   0.098  0.00  0.00     0.034 H 
ATOM     11  H9  <0> d          -2.562  -4.372   0.953  0.00  0.00     0.033 H 
ATOM     12  H10 <0> d          -4.303  -4.007   0.978  0.00  0.00     0.033 H 
ATOM     13  H11 <0> d          -3.742  -5.214  -1.085  0.00  0.00     0.033 H 
ATOM     14  H12 <0> d          -4.206  -3.541  -1.479  0.00  0.00     0.033 H 
ATOM     15  H13 <0> d          -1.365  -4.637  -1.247  0.00  0.00     0.044 H 
ATOM     16  H14 <0> d          -2.188  -4.119  -2.741  0.00  0.00     0.044 H 
ENDROOT
BRANCH   1  17
ATOM     17  C3  <0> d          -1.412  -0.526   0.013  0.00  0.00     0.137 C 
ATOM     18  O1  <0> d          -2.340   0.246   0.026  0.00  0.00    -0.297 OA
BRANCH  17  19
ATOM     19  C2  <0> d           0.002  -0.004   0.002  0.00  0.00    -0.012 C 
ATOM     20  H5  <0> d           0.512  -0.356  -0.895  0.00  0.00     0.043 H 
ATOM     21  H6  <0> d           0.529  -0.365   0.885  0.00  0.00     0.043 H 
BRANCH  19  22
ATOM     22  C1  <0> d          -0.019   1.526   0.010  0.00  0.00    -0.070 C 
ATOM     23  H2  <0> d           1.004   1.903   0.003  0.00  0.00     0.028 H 
ATOM     24  H3  <0> d          -0.546   1.887  -0.873  0.00  0.00     0.028 H 
ATOM     25  H4  <0> d          -0.529   1.877   0.907  0.00  0.00     0.028 H 
ENDBRANCH  19  22
ENDBRANCH  17  19
ENDBRANCH   1  17
TORSDOF 3
