REMARK  0 active torsions:
REMARK  status: ('A' for Active; 'I' for Inactive)
ROOT
ATOM      1  C1  <0> d          -0.017   1.372   0.010  0.00  0.00    -0.082 A 
ATOM      2  C2  <0> d           1.173   2.085   0.002  0.00  0.00    -0.081 A 
ATOM      3  C3  <0> d           2.384   1.429  -0.013  0.00  0.00    -0.057 A 
ATOM      4  C4  <0> d           2.430   0.035  -0.021  0.00  0.00     0.042 A 
ATOM      5  C5  <0> d           1.226  -0.686  -0.014  0.00  0.00     0.038 A 
ATOM      6  C6  <0> d           0.002  -0.004   0.002  0.00  0.00    -0.067 A 
ATOM      7  C7  <0> d           1.534  -2.123  -0.025  0.00  0.00     0.179 A 
ATOM      8  O1  <0> d           0.746  -3.045  -0.024  0.00  0.00    -0.290 OA
ATOM      9  C8  <0> d           3.045  -2.209  -0.041  0.00  0.00     0.052 A 
ATOM     10  N1  <0> d           3.519  -0.822  -0.037  0.00  0.00    -0.382 N 
ATOM     11  H1  <0> d          -0.960   1.898   0.026  0.00  0.00     0.083 H 
ATOM     12  H2  <0> d           1.149   3.165   0.008  0.00  0.00     0.083 H 
ATOM     13  H3  <0> d           3.303   1.997  -0.019  0.00  0.00     0.086 H 
ATOM     14  H4  <0> d          -0.925  -0.557   0.008  0.00  0.00     0.085 H 
ATOM     15  H5  <0> d           3.402  -2.731   0.847  0.00  0.00     0.076 H 
ATOM     16  H6  <0> d           3.384  -2.720  -0.942  0.00  0.00     0.076 H 
ATOM     17  H7  <0> d           4.449  -0.547  -0.046  0.00  0.00     0.160 HD
ENDROOT
TORSDOF 0
