REMARK  3 active torsions:
REMARK  status: ('A' for Active; 'I' for Inactive)
REMARK    1  A    between atoms: C1_1  and  C2_2 
REMARK    2  A    between atoms: C2_2  and  C3_4 
REMARK    3  A    between atoms: C2_2  and  C8_10 
ROOT
ATOM      1  C3  <0> d           0.731  -0.503   1.223  0.00  0.00    -0.027 A 
ATOM      2  C4  <0> d           0.087  -1.320   2.140  0.00  0.00    -0.073 A 
ATOM      3  C5  <0> d           0.797  -1.755   3.249  0.00  0.00    -0.066 A 
ATOM      4  C6  <0> d           2.114  -1.364   3.401  0.00  0.00     0.002 A 
ATOM      5  N1  <0> d           2.694  -0.586   2.509  0.00  0.00    -0.273 NA
ATOM      6  C7  <0> d           2.051  -0.158   1.439  0.00  0.00     0.009 A 
ATOM      7  H5  <0> d          -0.944  -1.609   1.995  0.00  0.00     0.084 H 
ATOM      8  H6  <0> d           0.327  -2.392   3.984  0.00  0.00     0.085 H 
ATOM      9  H7  <0> d           2.673  -1.698   4.262  0.00  0.00     0.114 H 
ATOM     10  H8  <0> d           2.562   0.473   0.727  0.00  0.00     0.115 H 
ENDROOT
BRANCH   1  11
ATOM     11  C2  <0> d           0.002  -0.004   0.002  0.00  0.00     0.054 C 
ATOM     12  H1  <0> d          -1.020  -0.381   0.010  0.00  0.00     0.063 H 
BRANCH  11  13
ATOM     13  C1  <0> d          -0.019   1.526   0.010  0.00  0.00    -0.060 C 
ATOM     14  H2  <0> d           1.004   1.903   0.003  0.00  0.00     0.029 H 
ATOM     15  H3  <0> d          -0.546   1.887  -0.873  0.00  0.00     0.029 H 
ATOM     16  H4  <0> d          -0.529   1.877   0.907  0.00  0.00     0.029 H 
ENDBRANCH  11  13
BRANCH  11  17
ATOM     17  C8  <0> d           0.707  -0.490  -1.238  0.00  0.00     0.181 C 
ATOM     18  O1  <0> d           1.709  -1.178  -1.139  0.00  0.00    -0.647 OA
ATOM     19  O2  <0> d           0.276  -0.195  -2.340  0.00  0.00    -0.647 OA
ENDBRANCH  11  17
ENDBRANCH   1  11
TORSDOF 3
