REMARK  2 active torsions:
REMARK  status: ('A' for Active; 'I' for Inactive)
REMARK    1  A    between atoms: C1_1  and  C2_2 
REMARK    2  A    between atoms: C2_2  and  C3_3 
ROOT
ATOM      1  C3  <0> d          -0.729   1.579   1.267  0.00  0.00     0.038 C 
ATOM      2  H1  <0> d          -0.822   2.665   1.230  0.00  0.00     0.083 H 
ATOM      3  C4  <0> d           0.079   1.178   2.504  0.00  0.00    -0.041 C 
ATOM      4  C5  <0> d          -0.674   1.622   3.762  0.00  0.00    -0.061 C 
ATOM      5  C6  <0> d          -2.073   0.999   3.753  0.00  0.00    -0.045 C 
ATOM      6  C7  <0> d          -2.798   1.407   2.468  0.00  0.00     0.020 C 
ATOM      7  O1  <0> d          -2.029   0.991   1.337  0.00  0.00    -0.386 OA
ATOM      8  H7  <0> d           0.207   0.096   2.520  0.00  0.00     0.036 H 
ATOM      9  H8  <0> d           1.056   1.661   2.474  0.00  0.00     0.036 H 
ATOM     10  H9  <0> d          -0.133   1.290   4.647  0.00  0.00     0.033 H 
ATOM     11  H10 <0> d          -0.758   2.709   3.772  0.00  0.00     0.033 H 
ATOM     12  H11 <0> d          -1.988  -0.087   3.794  0.00  0.00     0.036 H 
ATOM     13  H12 <0> d          -2.635   1.353   4.617  0.00  0.00     0.036 H 
ATOM     14  H13 <0> d          -3.778   0.931   2.436  0.00  0.00     0.074 H 
ATOM     15  H14 <0> d          -2.918   2.490   2.447  0.00  0.00     0.074 H 
ENDROOT
BRANCH   1  16
ATOM     16  C2  <0> d          -0.013   1.086   0.008  0.00  0.00    -0.044 C 
ATOM     17  H5  <0> d           0.002  -0.004   0.002  0.00  0.00     0.036 H 
ATOM     18  H6  <0> d           1.010   1.463   0.000  0.00  0.00     0.036 H 
BRANCH  16  19
ATOM     19  C1  <0> d          -0.753   1.593  -1.232  0.00  0.00    -0.074 C 
ATOM     20  H2  <0> d          -1.775   1.215  -1.224  0.00  0.00     0.027 H 
ATOM     21  H3  <0> d          -0.767   2.683  -1.226  0.00  0.00     0.027 H 
ATOM     22  H4  <0> d          -0.242   1.241  -2.128  0.00  0.00     0.027 H 
ENDBRANCH  16  19
ENDBRANCH   1  16
TORSDOF 2
