REMARK  0 active torsions:
REMARK  status: ('A' for Active; 'I' for Inactive)
ROOT
ATOM      1  C1  <0> d          -0.017   1.402   0.010  0.00  0.00    -0.046 A 
ATOM      2  C2  <0> d           1.139   2.098   0.003  0.00  0.00    -0.012 A 
ATOM      3  N1  <0> d           2.340   1.450  -0.013  0.00  0.00    -0.316 N 
ATOM      4  C3  <0> d           3.634   1.899  -0.022  0.00  0.00     0.003 A 
ATOM      5  C4  <0> d           4.434   0.811  -0.036  0.00  0.00     0.020 A 
ATOM      6  N2  <0> d           3.667  -0.282  -0.034  0.00  0.00    -0.241 NA
ATOM      7  C5  <0> d           2.392   0.081  -0.020  0.00  0.00     0.134 A 
ATOM      8  C6  <0> d           1.194  -0.662  -0.013  0.00  0.00    -0.017 A 
ATOM      9  C7  <0> d           0.002  -0.004   0.002  0.00  0.00     0.039 A 
ATOM     10 Cl1  <0> d          -1.487  -0.897   0.012  0.00  0.00    -0.084 Cl
ATOM     11  H1  <0> d          -0.961   1.927   0.026  0.00  0.00     0.088 H 
ATOM     12  H2  <0> d           1.113   3.177   0.008  0.00  0.00     0.112 H 
ATOM     13  H3  <0> d           3.954   2.931  -0.020  0.00  0.00     0.114 H 
ATOM     14  H4  <0> d           5.513   0.823  -0.046  0.00  0.00     0.117 H 
ATOM     15  H5  <0> d           1.222  -1.741  -0.019  0.00  0.00     0.092 H 
ENDROOT
TORSDOF 0
