REMARK  3 active torsions:
REMARK  status: ('A' for Active; 'I' for Inactive)
REMARK    1  A    between atoms: C1_1  and  C2_2 
REMARK    2  A    between atoms: C3_3  and  C5_10 
REMARK    3  A    between atoms: C5_10  and  C6_12 
ROOT
ATOM      1  C2  <0> d           0.003  -0.004   0.006  0.00  0.00     0.040 A 
ATOM      2  C3  <0> d          -1.080  -0.819   0.096  0.00  0.00     0.104 A 
ATOM      3  N1  <0> d          -0.610  -2.136   0.039  0.00  0.00    -0.304 N 
ATOM      4  H1  <0> d          -1.151  -2.940   0.079  0.00  0.00     0.171 HD
ATOM      5  C4  <0> d           0.731  -2.084  -0.084  0.00  0.00     0.325 A 
ATOM      6  O1  <0> d           1.474  -3.045  -0.163  0.00  0.00    -0.247 OA
ATOM      7  N2  <0> d           1.112  -0.794  -0.110  0.00  0.00    -0.310 N 
ATOM      8  H2  <0> d           2.025  -0.476  -0.195  0.00  0.00     0.170 HD
ENDROOT
BRANCH   2   9
ATOM      9  C5  <0> d          -2.427  -0.413   0.224  0.00  0.00     0.174 C 
ATOM     10  O2  <0> d          -2.715   0.765   0.165  0.00  0.00    -0.291 OA
BRANCH   9  11
ATOM     11  C6  <0> d          -3.508  -1.443   0.433  0.00  0.00    -0.015 C 
ATOM     12  H6  <0> d          -3.054  -2.427   0.549  0.00  0.00     0.038 H 
ATOM     13  H7  <0> d          -4.075  -1.197   1.331  0.00  0.00     0.038 H 
ATOM     14  H8  <0> d          -4.175  -1.450  -0.428  0.00  0.00     0.038 H 
ENDBRANCH   9  11
ENDBRANCH   2   9
BRANCH   1  15
ATOM     15  C1  <0> d          -0.017   1.502   0.025  0.00  0.00    -0.035 C 
ATOM     16  H3  <0> d           1.006   1.879   0.019  0.00  0.00     0.035 H 
ATOM     17  H4  <0> d          -0.544   1.870  -0.855  0.00  0.00     0.035 H 
ATOM     18  H5  <0> d          -0.526   1.848   0.924  0.00  0.00     0.035 H 
ENDBRANCH   1  15
TORSDOF 3
