REMARK  2 active torsions:
REMARK  status: ('A' for Active; 'I' for Inactive)
REMARK    1  A    between atoms: C1_1  and  C2_2 
REMARK    2  A    between atoms: C2_2  and  N1_3 
ROOT
ATOM      1  N1  <0> d           0.688  -0.476  -1.203  0.00  0.00    -0.352 N 
ATOM      2  C3  <0> d           0.021  -0.749  -2.482  0.00  0.00    -0.002 C 
ATOM      3  C4  <0> d           1.151  -0.789  -3.535  0.00  0.00    -0.042 C 
ATOM      4  C5  <0> d           2.373  -1.181  -2.673  0.00  0.00     0.011 C 
ATOM      5  C6  <0> d           2.009  -0.711  -1.282  0.00  0.00     0.219 C 
ATOM      6  O1  <0> d           2.795  -0.568  -0.369  0.00  0.00    -0.273 OA
ATOM      7  H6  <0> d          -0.492  -1.710  -2.443  0.00  0.00     0.064 H 
ATOM      8  H7  <0> d          -0.685   0.047  -2.716  0.00  0.00     0.064 H 
ATOM      9  H8  <0> d           0.950  -1.545  -4.294  0.00  0.00     0.036 H 
ATOM     10  H9  <0> d           1.294   0.191  -3.991  0.00  0.00     0.036 H 
ATOM     11  H10 <0> d           2.519  -2.261  -2.688  0.00  0.00     0.047 H 
ATOM     12  H11 <0> d           3.268  -0.668  -3.024  0.00  0.00     0.047 H 
ENDROOT
BRANCH   1  13
ATOM     13  C2  <0> d           0.002  -0.004   0.002  0.00  0.00    -0.006 C 
ATOM     14  H4  <0> d           0.529  -0.365   0.885  0.00  0.00     0.063 H 
ATOM     15  H5  <0> d          -1.020  -0.381   0.010  0.00  0.00     0.063 H 
BRANCH  13  16
ATOM     16  C1  <0> d          -0.019   1.526   0.010  0.00  0.00    -0.061 C 
ATOM     17  H1  <0> d           1.004   1.903   0.003  0.00  0.00     0.029 H 
ATOM     18  H2  <0> d          -0.546   1.887  -0.873  0.00  0.00     0.029 H 
ATOM     19  H3  <0> d          -0.529   1.877   0.907  0.00  0.00     0.029 H 
ENDBRANCH  13  16
ENDBRANCH   1  13
TORSDOF 2
