REMARK  3 active torsions:
REMARK  status: ('A' for Active; 'I' for Inactive)
REMARK    1  A    between atoms: C1_1  and  C2_2 
REMARK       I    between atoms: C2_2  and  N1_4 
REMARK    2  A    between atoms: N1_4  and  C3_5 
REMARK    3  A    between atoms: C3_5  and  C4_6 
ROOT
ATOM      1  C3  <0> d          -2.530   3.893   0.046  0.00  0.00     0.019 C 
ATOM      2  H5  <0> d          -3.289   3.308   0.564  0.00  0.00     0.071 H 
ATOM      3  H6  <0> d          -2.387   4.842   0.563  0.00  0.00     0.071 H 
ENDROOT
BRANCH   1   4
ATOM      4  N1  <0> d          -2.963   4.147  -1.330  0.00  0.00    -0.357 N 
ATOM      5  C2  <0> d          -4.108   4.820  -1.563  0.00  0.00     0.213 C 
ATOM      6  O1  <0> d          -4.779   5.215  -0.633  0.00  0.00    -0.274 OA
ATOM      7  H4  <0> d          -2.427   3.831  -2.074  0.00  0.00     0.162 HD
BRANCH   5   8
ATOM      8  C1  <0> d          -4.554   5.081  -2.979  0.00  0.00    -0.003 C 
ATOM      9  H1  <0> d          -3.829   4.655  -3.672  0.00  0.00     0.040 H 
ATOM     10  H2  <0> d          -5.528   4.622  -3.143  0.00  0.00     0.040 H 
ATOM     11  H3  <0> d          -4.626   6.156  -3.144  0.00  0.00     0.040 H 
ENDBRANCH   5   8
ENDBRANCH   1   4
BRANCH   1  12
ATOM     12  C4  <0> d          -1.231   3.129   0.030  0.00  0.00    -0.038 A 
ATOM     13  C8  <0> d          -0.015   3.796   0.022  0.00  0.00    -0.058 A 
ATOM     14  C7  <0> d           1.155   3.061   0.007  0.00  0.00     0.002 A 
ATOM     15  H10 <0> d           0.016   4.875   0.027  0.00  0.00     0.086 H 
ATOM     16  N2  <0> d           1.125   1.743   0.001  0.00  0.00    -0.273 NA
ATOM     17  H9  <0> d           2.107   3.573   0.001  0.00  0.00     0.114 H 
ATOM     18  C6  <0> d          -0.013   1.076   0.008  0.00  0.00     0.002 A 
ATOM     19  C5  <0> d          -1.223   1.742   0.017  0.00  0.00    -0.058 A 
ATOM     20  H8  <0> d           0.002  -0.004   0.002  0.00  0.00     0.114 H 
ATOM     21  H7  <0> d          -2.151   1.190   0.018  0.00  0.00     0.086 H 
ENDBRANCH   1  12
TORSDOF 3
