REMARK  4 active torsions:
REMARK  status: ('A' for Active; 'I' for Inactive)
REMARK    1  A    between atoms: C1_1  and  C2_2 
REMARK    2  A    between atoms: C4_5  and  C5_7 
REMARK    3  A    between atoms: C5_7  and  C6_8 
REMARK    4  A    between atoms: C5_7  and  C7_9 
ROOT
ATOM      1  C2  <0> d           2.179   1.086  -0.013  0.00  0.00     0.038 A 
ATOM      2  C3  <0> d           1.777  -0.211  -0.016  0.00  0.00    -0.020 A 
ATOM      3  S1  <0> d           0.002  -0.004   0.002  0.00  0.00    -0.084 SA
ATOM      4  C4  <0> d          -0.021   1.732   0.012  0.00  0.00     0.078 A 
ATOM      5  N1  <0> d           1.258   2.026   0.001  0.00  0.00    -0.250 NA
ATOM      6  H4  <0> d           2.366  -1.116  -0.026  0.00  0.00     0.098 H 
ENDROOT
BRANCH   4   7
ATOM      7  C5  <0> d          -1.207   2.663   0.023  0.00  0.00    -0.012 C 
ATOM      8  H5  <0> d          -0.858   3.696   0.026  0.00  0.00     0.049 H 
BRANCH   7   9
ATOM      9  C6  <0> d          -2.060   2.417  -1.223  0.00  0.00    -0.067 C 
ATOM     10  H6  <0> d          -2.409   1.384  -1.227  0.00  0.00     0.028 H 
ATOM     11  H7  <0> d          -2.917   3.090  -1.216  0.00  0.00     0.028 H 
ATOM     12  H8  <0> d          -1.462   2.601  -2.116  0.00  0.00     0.028 H 
ENDBRANCH   7   9
BRANCH   7  13
ATOM     13  C7  <0> d          -2.047   2.404   1.275  0.00  0.00    -0.067 C 
ATOM     14  H9  <0> d          -2.904   3.077   1.283  0.00  0.00     0.028 H 
ATOM     15  H10 <0> d          -2.396   1.372   1.272  0.00  0.00     0.028 H 
ATOM     16  H11 <0> d          -1.439   2.579   2.163  0.00  0.00     0.028 H 
ENDBRANCH   7  13
ENDBRANCH   4   7
BRANCH   1  17
ATOM     17  C1  <0> d           3.644   1.440  -0.025  0.00  0.00    -0.035 C 
ATOM     18  H1  <0> d           3.988   1.530  -1.055  0.00  0.00     0.035 H 
ATOM     19  H2  <0> d           3.793   2.388   0.493  0.00  0.00     0.035 H 
ATOM     20  H3  <0> d           4.211   0.657   0.480  0.00  0.00     0.035 H 
ENDBRANCH   1  17
TORSDOF 4
