REMARK  2 active torsions:
REMARK  status: ('A' for Active; 'I' for Inactive)
REMARK    1  A    between atoms: C1_1  and  C2_2 
REMARK    2  A    between atoms: C2_2  and  C3_4 
ROOT
ATOM      1  C3  <0> d           1.142   1.858   0.001  0.00  0.00     0.089 A 
ATOM      2  C4  <0> d          -0.013   1.076   0.008  0.00  0.00     0.046 A 
ATOM      3  N1  <0> d          -1.117   1.781   0.017  0.00  0.00    -0.154 NA
ATOM      4  N2  <0> d          -1.109   3.064   0.028  0.00  0.00    -0.110 NA
ATOM      5  S1  <0> d           0.413   3.487   0.016  0.00  0.00     0.039 SA
ATOM      6  H4  <0> d           0.002  -0.004   0.002  0.00  0.00     0.119 H 
ENDROOT
BRANCH   1   7
ATOM      7  C2  <0> d           2.549   1.458  -0.014  0.00  0.00     0.165 C 
ATOM      8  O1  <0> d           2.845   0.281  -0.022  0.00  0.00    -0.292 OA
BRANCH   7   9
ATOM      9  C1  <0> d           3.631   2.507  -0.019  0.00  0.00    -0.016 C 
ATOM     10  H1  <0> d           3.214   3.416  -0.010  0.00  0.00     0.038 H 
ATOM     11  H2  <0> d           4.258   2.386   0.865  0.00  0.00     0.038 H 
ATOM     12  H3  <0> d           4.242   2.395  -0.915  0.00  0.00     0.038 H 
ENDBRANCH   7   9
ENDBRANCH   1   7
TORSDOF 2
