REMARK  0 active torsions:
REMARK  status: ('A' for Active; 'I' for Inactive)
ROOT
ATOM      1  C1  <0> d          -0.814   1.625  -1.216  0.00  0.00    -0.064 C 
ATOM      2  C2  <0> d          -1.853   2.653  -0.640  0.00  0.00    -0.061 C 
ATOM      3  C3  <0> d          -1.200   2.998   0.630  0.00  0.00    -0.046 C 
ATOM      4  H1  <0> d          -0.247   3.356   0.242  0.00  0.00     0.041 H 
ATOM      5  C4  <0> d          -0.775   1.602   1.230  0.00  0.00    -0.040 C 
ATOM      6  H2  <0> d          -1.616   0.964   1.503  0.00  0.00     0.041 H 
ATOM      7  C5  <0> d          -0.013   1.086   0.008  0.00  0.00    -0.061 C 
ATOM      8  C6  <0> d          -0.013   2.146   2.438  0.00  0.00     0.008 C 
ATOM      9  H3  <0> d           0.412   1.388   2.932  0.00  0.00     0.052 H 
ATOM     10  C7  <0> d          -1.207   2.990   3.044  0.00  0.00    -0.051 C 
ATOM     11  C8  <0> d          -1.361   3.940   1.780  0.00  0.00    -0.043 C 
ATOM     12  H4  <0> d          -2.193   4.643   1.748  0.00  0.00     0.041 H 
ATOM     13  C9  <0> d           0.115   4.519   1.839  0.00  0.00    -0.006 C 
ATOM     14  C10 <0> d           0.946   3.256   2.070  0.00  0.00     0.131 C 
ATOM     15  O1  <0> d           2.146   3.162   1.976  0.00  0.00    -0.298 OA
ATOM     16  H5  <0> d          -0.141   2.124  -1.914  0.00  0.00     0.033 H 
ATOM     17  H6  <0> d          -1.332   0.807  -1.715  0.00  0.00     0.033 H 
ATOM     18  H7  <0> d          -1.945   3.526  -1.287  0.00  0.00     0.033 H 
ATOM     19  H8  <0> d          -2.822   2.184  -0.473  0.00  0.00     0.033 H 
ATOM     20  H9  <0> d           0.002  -0.004   0.002  0.00  0.00     0.033 H 
ATOM     21  H10 <0> d           1.004   1.479   0.000  0.00  0.00     0.033 H 
ATOM     22  H11 <0> d          -0.911   3.539   3.938  0.00  0.00     0.034 H 
ATOM     23  H12 <0> d          -2.096   2.384   3.215  0.00  0.00     0.034 H 
ATOM     24  H13 <0> d           0.323   4.988   0.980  0.00  0.00     0.044 H 
ATOM     25  H14 <0> d           0.226   5.215   2.670  0.00  0.00     0.044 H 
ENDROOT
TORSDOF 0
