REMARK  4 active torsions:
REMARK  status: ('A' for Active; 'I' for Inactive)
REMARK    1  A    between atoms: C1_1  and  C2_2 
REMARK    2  A    between atoms: C2_2  and  C3_3 
REMARK    3  A    between atoms: C2_2  and  C4_4 
REMARK    4  A    between atoms: C2_2  and  O1_11 
ROOT
ATOM      1  C4  <0> d           1.171   2.086   0.002  0.00  0.00    -0.025 A 
ATOM      2  C5  <0> d          -0.017   1.378   0.010  0.00  0.00    -0.071 A 
ATOM      3  C6  <0> d           0.002  -0.004   0.002  0.00  0.00    -0.045 A 
ATOM      4  C7  <0> d           1.211  -0.679  -0.013  0.00  0.00     0.116 A 
ATOM      5  C8  <0> d           2.399   0.031  -0.021  0.00  0.00    -0.045 A 
ATOM      6  C9  <0> d           2.378   1.413  -0.013  0.00  0.00    -0.071 A 
ATOM      7  F1  <0> d           1.230  -2.030  -0.020  0.00  0.00    -0.206 F 
ATOM      8  H7  <0> d          -0.959   1.905   0.017  0.00  0.00     0.084 H 
ATOM      9  H8  <0> d          -0.926  -0.557   0.008  0.00  0.00     0.088 H 
ATOM     10  H9  <0> d           3.343  -0.495  -0.032  0.00  0.00     0.088 H 
ATOM     11  H10 <0> d           3.305   1.967  -0.018  0.00  0.00     0.084 H 
ENDROOT
BRANCH   1  12
ATOM     12  C2  <0> d           1.149   3.593   0.010  0.00  0.00     0.077 C 
BRANCH  12  13
ATOM     13  C1  <0> d           2.397   4.117   0.723  0.00  0.00    -0.044 C 
ATOM     14  H1  <0> d           3.288   3.769   0.198  0.00  0.00     0.032 H 
ATOM     15  H2  <0> d           2.382   5.207   0.729  0.00  0.00     0.032 H 
ATOM     16  H3  <0> d           2.413   3.748   1.748  0.00  0.00     0.032 H 
ENDBRANCH  12  13
BRANCH  12  17
ATOM     17  C3  <0> d           1.128   4.110  -1.429  0.00  0.00    -0.044 C 
ATOM     18  H4  <0> d           0.238   3.737  -1.937  0.00  0.00     0.032 H 
ATOM     19  H5  <0> d           1.112   5.200  -1.423  0.00  0.00     0.032 H 
ATOM     20  H6  <0> d           2.018   3.763  -1.954  0.00  0.00     0.032 H 
ENDBRANCH  12  17
BRANCH  12  21
ATOM     21  O1  <0> d          -0.018   4.048   0.698  0.00  0.00    -0.386 OA
ATOM     22  H11 <0> d          -0.849   3.753   0.300  0.00  0.00     0.211 HD
ENDBRANCH  12  21
ENDBRANCH   1  12
TORSDOF 4
