REMARK  3 active torsions:
REMARK  status: ('A' for Active; 'I' for Inactive)
REMARK    1  A    between atoms: C1_1  and  C2_2 
REMARK    2  A    between atoms: C4_4  and  O1_11 
REMARK    3  A    between atoms: C6_6  and  C9_10 
ROOT
ATOM      1  C2  <0> d           1.203  -0.678  -0.013  0.00  0.00    -0.038 A 
ATOM      2  C3  <0> d           0.002  -0.004   0.002  0.00  0.00    -0.044 A 
ATOM      3  C4  <0> d          -0.017   1.385   0.010  0.00  0.00     0.066 A 
ATOM      4  C5  <0> d           1.175   2.100   0.002  0.00  0.00    -0.044 A 
ATOM      5  C6  <0> d           2.380   1.434  -0.013  0.00  0.00    -0.038 A 
ATOM      6  C7  <0> d           2.404   0.037  -0.021  0.00  0.00     0.056 A 
ATOM      7  C8  <0> d           3.654  -0.660  -0.037  0.00  0.00     0.100 C 
ATOM      8  N1  <0> d           4.647  -1.213  -0.049  0.00  0.00    -0.191 NA
ATOM      9  H4  <0> d          -0.926  -0.556   0.008  0.00  0.00     0.088 H 
ATOM     10  H5  <0> d           1.156   3.180   0.008  0.00  0.00     0.088 H 
ENDROOT
BRANCH   1  11
ATOM     11  C1  <0> d           1.222  -2.185  -0.023  0.00  0.00    -0.050 C 
ATOM     12  H1  <0> d           1.217  -2.542  -1.053  0.00  0.00     0.033 H 
ATOM     13  H2  <0> d           2.122  -2.540   0.480  0.00  0.00     0.033 H 
ATOM     14  H3  <0> d           0.342  -2.563   0.497  0.00  0.00     0.033 H 
ENDBRANCH   1  11
BRANCH   5  15
ATOM     15  C9  <0> d           3.671   2.211  -0.021  0.00  0.00    -0.050 C 
ATOM     16  H6  <0> d           3.973   2.404  -1.051  0.00  0.00     0.033 H 
ATOM     17  H7  <0> d           3.530   3.158   0.499  0.00  0.00     0.033 H 
ATOM     18  H8  <0> d           4.447   1.632   0.481  0.00  0.00     0.033 H 
ENDBRANCH   5  15
BRANCH   3  19
ATOM     19  O1  <0> d          -1.203   2.046   0.019  0.00  0.00    -0.361 OA
ATOM     20  H9  <0> d          -1.542   2.233   0.905  0.00  0.00     0.217 HD
ENDBRANCH   3  19
TORSDOF 3
