REMARK  9 active torsions:
REMARK  status: ('A' for Active; 'I' for Inactive)
REMARK    1  A    between atoms: C1_1  and  C2_2 
REMARK    2  A    between atoms: C1_1  and  O5_12 
REMARK    3  A    between atoms: C2_2  and  C3_4 
REMARK    4  A    between atoms: C2_2  and  O4_11 
REMARK    5  A    between atoms: C3_4  and  C4_5 
REMARK    6  A    between atoms: C3_4  and  O3_10 
REMARK    7  A    between atoms: C4_5  and  C5_7 
REMARK    8  A    between atoms: C4_5  and  O2_9 
REMARK    9  A    between atoms: C5_7  and  O1_8 
ROOT
ATOM      1  C3  <0> d          -1.427  -0.534   0.139  0.00  0.00     0.089 C 
ATOM      2  H5  <0> d          -2.029  -0.174  -0.696  0.00  0.00     0.091 H 
ENDROOT
BRANCH   1   3
ATOM      3  C2  <0> d           0.002  -0.004   0.002  0.00  0.00     0.083 C 
ATOM      4  H1  <0> d           0.604  -0.364   0.836  0.00  0.00     0.090 H 
BRANCH   3   5
ATOM      5  C1  <0> d          -0.019   1.526   0.010  0.00  0.00     0.043 C 
ATOM      6  H3  <0> d          -0.546   1.887  -0.873  0.00  0.00     0.078 H 
ATOM      7  H4  <0> d          -0.529   1.877   0.907  0.00  0.00     0.078 H 
BRANCH   5   8
ATOM      8  O5  <0> d           1.322   2.020   0.000  0.00  0.00    -0.398 OA
ATOM      9  H12 <0> d           1.385   2.985   0.005  0.00  0.00     0.209 HD
ENDBRANCH   5   8
ENDBRANCH   3   5
BRANCH   3  10
ATOM     10  O4  <0> d           0.566  -0.466  -1.227  0.00  0.00    -0.391 OA
ATOM     11  H11 <0> d           0.080  -0.183  -2.014  0.00  0.00     0.210 HD
ENDBRANCH   3  10
ENDBRANCH   1   3
BRANCH   1  12
ATOM     12  C4  <0> d          -1.406  -2.064   0.130  0.00  0.00     0.083 C 
ATOM     13  H2  <0> d          -1.059  -2.417  -0.841  0.00  0.00     0.090 H 
BRANCH  12  14
ATOM     14  C5  <0> d          -2.817  -2.595   0.391  0.00  0.00     0.043 C 
ATOM     15  H6  <0> d          -3.129  -2.316   1.398  0.00  0.00     0.078 H 
ATOM     16  H7  <0> d          -3.507  -2.165  -0.335  0.00  0.00     0.078 H 
BRANCH  14  17
ATOM     17  O1  <0> d          -2.821  -4.018   0.268  0.00  0.00    -0.398 OA
ATOM     18  H8  <0> d          -3.685  -4.424   0.421  0.00  0.00     0.209 HD
ENDBRANCH  14  17
ENDBRANCH  12  14
BRANCH  12  19
ATOM     19  O2  <0> d          -0.524  -2.534   1.151  0.00  0.00    -0.391 OA
ATOM     20  H9  <0> d          -0.772  -2.257   2.044  0.00  0.00     0.210 HD
ENDBRANCH  12  19
ENDBRANCH   1  12
BRANCH   1  21
ATOM     21  O3  <0> d          -1.991  -0.072   1.367  0.00  0.00    -0.390 OA
ATOM     22  H10 <0> d          -1.505  -0.355   2.154  0.00  0.00     0.210 HD
ENDBRANCH   1  21
TORSDOF 9
