REMARK  5 active torsions:
REMARK  status: ('A' for Active; 'I' for Inactive)
REMARK    1  A    between atoms: C1_1  and  O1_2 
REMARK    2  A    between atoms: O1_2  and  C2_3 
REMARK    3  A    between atoms: C2_3  and  C3_5 
REMARK    4  A    between atoms: C3_5  and  C4_6 
REMARK    5  A    between atoms: C4_6  and  C5_7 
ROOT
ATOM      1  C5  <0> d           1.445  -4.047  -2.478  0.00  0.00    -0.054 C 
ATOM      2  C6  <0> d           2.366  -4.597  -1.369  0.00  0.00    -0.062 C 
ATOM      3  C7  <0> d           3.091  -5.793  -2.036  0.00  0.00    -0.065 C 
ATOM      4  C8  <0> d           3.337  -5.282  -3.478  0.00  0.00    -0.065 C 
ATOM      5  C9  <0> d           2.062  -4.483  -3.818  0.00  0.00    -0.062 C 
ATOM      6  H8  <0> d           0.444  -4.466  -2.374  0.00  0.00     0.040 H 
ATOM      7  H9  <0> d           3.086  -3.839  -1.060  0.00  0.00     0.033 H 
ATOM      8  H10 <0> d           1.777  -4.936  -0.517  0.00  0.00     0.033 H 
ATOM      9  H11 <0> d           4.036  -6.000  -1.534  0.00  0.00     0.033 H 
ATOM     10  H12 <0> d           2.453  -6.676  -2.043  0.00  0.00     0.033 H 
ATOM     11  H13 <0> d           4.213  -4.634  -3.509  0.00  0.00     0.033 H 
ATOM     12  H14 <0> d           3.456  -6.120  -4.164  0.00  0.00     0.033 H 
ATOM     13  H15 <0> d           1.361  -5.113  -4.365  0.00  0.00     0.033 H 
ATOM     14  H16 <0> d           2.319  -3.606  -4.413  0.00  0.00     0.033 H 
ENDROOT
BRANCH   1  15
ATOM     15  C4  <0> d           1.385  -2.521  -2.400  0.00  0.00    -0.053 C 
ATOM     16  H6  <0> d           0.848  -2.133  -3.265  0.00  0.00     0.034 H 
ATOM     17  H7  <0> d           2.397  -2.117  -2.390  0.00  0.00     0.034 H 
BRANCH  15  18
ATOM     18  C3  <0> d           0.657  -2.104  -1.120  0.00  0.00     0.016 C 
ATOM     19  H4  <0> d           1.195  -2.491  -0.254  0.00  0.00     0.048 H 
ATOM     20  H5  <0> d          -0.355  -2.507  -1.129  0.00  0.00     0.048 H 
BRANCH  18  21
ATOM     21  C2  <0> d           0.598  -0.600  -1.043  0.00  0.00     0.258 C 
ATOM     22  O2  <0> d           1.088   0.070  -1.921  0.00  0.00    -0.265 OA
BRANCH  21  23
ATOM     23  O1  <0> d           0.002  -0.004   0.002  0.00  0.00    -0.326 OA
BRANCH  23  24
ATOM     24  C1  <0> d          -0.017   1.425   0.010  0.00  0.00     0.013 C 
ATOM     25  H1  <0> d           1.005   1.802   0.002  0.00  0.00     0.067 H 
ATOM     26  H2  <0> d          -0.544   1.786  -0.873  0.00  0.00     0.067 H 
ATOM     27  H3  <0> d          -0.527   1.776   0.907  0.00  0.00     0.067 H 
ENDBRANCH  23  24
ENDBRANCH  21  23
ENDBRANCH  18  21
ENDBRANCH  15  18
ENDBRANCH   1  15
TORSDOF 5
