REMARK  5 active torsions:
REMARK  status: ('A' for Active; 'I' for Inactive)
REMARK    1  A    between atoms: C1_1  and  C2_2 
REMARK    2  A    between atoms: C2_2  and  C6_8 
REMARK    3  A    between atoms: C3_3  and  C4_4 
REMARK    4  A    between atoms: C4_4  and  O2_6 
REMARK    5  A    between atoms: O2_6  and  C5_7 
ROOT
ATOM      1  C2  <0> d          -1.028   1.825   0.032  0.00  0.00    -0.082 C 
ATOM      2  C3  <0> d          -0.013   0.999  -0.209  0.00  0.00    -0.009 C 
ATOM      3  H4  <0> d          -0.124  -0.060  -0.028  0.00  0.00     0.093 H 
ENDROOT
BRANCH   1   4
ATOM      4  C1  <0> d          -2.378   1.271   0.408  0.00  0.00    -0.055 C 
ATOM      5  H1  <0> d          -2.440   1.171   1.492  0.00  0.00     0.033 H 
ATOM      6  H2  <0> d          -3.159   1.947   0.060  0.00  0.00     0.033 H 
ATOM      7  H3  <0> d          -2.511   0.293  -0.055  0.00  0.00     0.033 H 
ENDBRANCH   1   4
BRANCH   1   8
ATOM      8  C6  <0> d          -0.828   3.316  -0.072  0.00  0.00    -0.055 C 
ATOM      9  H8  <0> d          -0.947   3.627  -1.110  0.00  0.00     0.033 H 
ATOM     10  H9  <0> d          -1.566   3.825   0.547  0.00  0.00     0.033 H 
ATOM     11  H10 <0> d           0.174   3.572   0.271  0.00  0.00     0.033 H 
ENDBRANCH   1   8
BRANCH   2  12
ATOM     12  C4  <0> d           1.257   1.527  -0.727  0.00  0.00     0.282 C 
ATOM     13  O1  <0> d           1.345   2.697  -1.043  0.00  0.00    -0.260 OA
BRANCH  12  14
ATOM     14  O2  <0> d           2.324   0.713  -0.852  0.00  0.00    -0.323 OA
BRANCH  14  15
ATOM     15  C5  <0> d           3.546   1.303  -1.371  0.00  0.00     0.013 C 
ATOM     16  H5  <0> d           4.324   0.541  -1.421  0.00  0.00     0.067 H 
ATOM     17  H6  <0> d           3.362   1.700  -2.369  0.00  0.00     0.067 H 
ATOM     18  H7  <0> d           3.868   2.109  -0.712  0.00  0.00     0.067 H 
ENDBRANCH  14  15
ENDBRANCH  12  14
ENDBRANCH   2  12
TORSDOF 5
