REMARK  2 active torsions:
REMARK  status: ('A' for Active; 'I' for Inactive)
REMARK    1  A    between atoms: C1_1  and  N1_2 
REMARK    2  A    between atoms: C3_5  and  O1_11 
ROOT
ATOM      1  N1  <0> d           3.439   0.640  -0.027  0.00  0.00    -0.329 N 
ATOM      2  C2  <0> d           3.992  -0.584  -0.040  0.00  0.00     0.070 A 
ATOM      3  N2  <0> d           3.272  -1.677  -0.039  0.00  0.00    -0.218 NA
ATOM      4  C3  <0> d           1.939  -1.646  -0.026  0.00  0.00     0.196 A 
ATOM      5  C4  <0> d           1.284  -0.406  -0.012  0.00  0.00     0.156 A 
ATOM      6  N3  <0> d           0.002  -0.004   0.002  0.00  0.00    -0.234 NA
ATOM      7  C5  <0> d          -0.016   1.312   0.009  0.00  0.00     0.089 A 
ATOM      8  N4  <0> d           1.224   1.788  -0.000  0.00  0.00    -0.222 NA
ATOM      9  C6  <0> d           2.071   0.769  -0.014  0.00  0.00     0.165 A 
ATOM     10  H4  <0> d           5.068  -0.669  -0.051  0.00  0.00     0.144 H 
ATOM     11  H5  <0> d          -0.910   1.917   0.017  0.00  0.00     0.146 H 
ENDROOT
BRANCH   1  12
ATOM     12  C1  <0> d           4.290   1.832  -0.029  0.00  0.00    -0.012 C 
ATOM     13  H1  <0> d           4.491   2.133  -1.057  0.00  0.00     0.057 H 
ATOM     14  H2  <0> d           3.783   2.642   0.495  0.00  0.00     0.057 H 
ATOM     15  H3  <0> d           5.231   1.607   0.474  0.00  0.00     0.057 H 
ENDBRANCH   1  12
BRANCH   4  16
ATOM     16  O1  <0> d           1.228  -2.795  -0.025  0.00  0.00    -0.343 OA
ATOM     17  H6  <0> d           1.013  -3.124  -0.909  0.00  0.00     0.219 HD
ENDBRANCH   4  16
TORSDOF 2
