REMARK  5 active torsions:
REMARK  status: ('A' for Active; 'I' for Inactive)
REMARK    1  A    between atoms: C1_1  and  N1_2 
REMARK    2  A    between atoms: C2_3  and  C5_8 
REMARK    3  A    between atoms: C4_5  and  N3_7 
REMARK    4  A    between atoms: C5_8  and  O2_10 
REMARK    5  A    between atoms: O2_10  and  C6_11 
ROOT
ATOM      1  N1  <0> d          -0.698   1.558   1.213  0.00  0.00    -0.266 N 
ATOM      2  C2  <0> d          -2.037   1.813   1.331  0.00  0.00     0.131 A 
ATOM      3  C3  <0> d          -2.258   2.234   2.627  0.00  0.00    -0.004 A 
ATOM      4  C4  <0> d          -1.026   2.236   3.288  0.00  0.00     0.143 A 
ATOM      5  N2  <0> d          -0.099   1.835   2.448  0.00  0.00    -0.155 NA
ATOM      6  H4  <0> d          -3.211   2.515   3.052  0.00  0.00     0.093 H 
ENDROOT
BRANCH   2   7
ATOM      7  C5  <0> d          -3.050   1.664   0.276  0.00  0.00     0.311 C 
ATOM      8  O1  <0> d          -4.214   1.925   0.510  0.00  0.00    -0.258 OA
BRANCH   7   9
ATOM      9  O2  <0> d          -2.688   1.237  -0.951  0.00  0.00    -0.321 OA
BRANCH   9  10
ATOM     10  C6  <0> d          -3.741   1.113  -1.943  0.00  0.00     0.013 C 
ATOM     11  H7  <0> d          -4.487   0.400  -1.593  0.00  0.00     0.067 H 
ATOM     12  H8  <0> d          -4.211   2.085  -2.097  0.00  0.00     0.067 H 
ATOM     13  H9  <0> d          -3.315   0.762  -2.882  0.00  0.00     0.067 H 
ENDBRANCH   9  10
ENDBRANCH   7   9
ENDBRANCH   2   7
BRANCH   1  14
ATOM     14  C1  <0> d          -0.013   1.086   0.008  0.00  0.00     0.003 C 
ATOM     15  H1  <0> d           0.002  -0.004   0.002  0.00  0.00     0.059 H 
ATOM     16  H2  <0> d           1.010   1.463   0.000  0.00  0.00     0.059 H 
ATOM     17  H3  <0> d          -0.540   1.447  -0.875  0.00  0.00     0.059 H 
ENDBRANCH   1  14
BRANCH   4  18
ATOM     18  N3  <0> d          -0.816   2.606   4.622  0.00  0.00    -0.383 N 
ATOM     19  H5  <0> d           0.078   2.576   4.998  0.00  0.00     0.157 HD
ATOM     20  H6  <0> d          -1.563   2.891   5.170  0.00  0.00     0.157 HD
ENDBRANCH   4  18
TORSDOF 5
