REMARK  2 active torsions:
REMARK  status: ('A' for Active; 'I' for Inactive)
REMARK    1  A    between atoms: C1_1  and  C2_2 
REMARK    2  A    between atoms: C5_6  and  N3_8 
ROOT
ATOM      1  C2  <0> d          -4.697   1.883   0.031  0.00  0.00     0.051 A 
ATOM      2  C3  <0> d          -4.975   0.525   0.024  0.00  0.00    -0.041 A 
ATOM      3  C4  <0> d          -3.915  -0.367   0.015  0.00  0.00     0.023 A 
ATOM      4  N1  <0> d          -2.678   0.102   0.013  0.00  0.00    -0.074 NA
ATOM      5  C5  <0> d          -2.447   1.405   0.019  0.00  0.00     0.732 A 
ATOM      6  N2  <0> d          -3.437   2.284   0.034  0.00  0.00    -0.067 NA
ATOM      7  H4  <0> d          -5.995   0.170   0.027  0.00  0.00     0.088 H 
ATOM      8  H5  <0> d          -4.096  -1.432   0.009  0.00  0.00     0.115 H 
ENDROOT
BRANCH   5   9
ATOM      9  N3  <0> d          -1.131   1.863   0.017  0.00  0.00    -0.165 N 
ATOM     10  C9  <0> d          -0.742   3.173   0.026  0.00  0.00     0.002 A 
ATOM     11  C8  <0> d           0.605   3.213   0.014  0.00  0.00    -0.066 A 
ATOM     12  H9  <0> d          -1.401   4.029   0.037  0.00  0.00     0.113 H 
ATOM     13  C7  <0> d           1.068   1.881   0.002  0.00  0.00    -0.066 A 
ATOM     14  H8  <0> d           1.218   4.102   0.013  0.00  0.00     0.085 H 
ATOM     15  C6  <0> d          -0.013   1.076   0.008  0.00  0.00     0.002 A 
ATOM     16  H7  <0> d           2.100   1.564  -0.010  0.00  0.00     0.085 H 
ATOM     17  H6  <0> d           0.002  -0.004   0.002  0.00  0.00     0.113 H 
ENDBRANCH   5   9
BRANCH   1  18
ATOM     18  C1  <0> d          -5.818   2.891   0.042  0.00  0.00    -0.035 C 
ATOM     19  H1  <0> d          -6.083   3.128   1.072  0.00  0.00     0.035 H 
ATOM     20  H2  <0> d          -5.495   3.799  -0.468  0.00  0.00     0.035 H 
ATOM     21  H3  <0> d          -6.685   2.476  -0.471  0.00  0.00     0.035 H 
ENDBRANCH   1  18
TORSDOF 2
