REMARK  1 active torsions:
REMARK  status: ('A' for Active; 'I' for Inactive)
REMARK    1  A    between atoms: C4_4  and  C7_7 
ROOT
ATOM      1  C1  <0> d           1.208  -0.683  -0.013  0.00  0.00    -0.083 A 
ATOM      2  C2  <0> d           0.002  -0.004   0.002  0.00  0.00    -0.082 A 
ATOM      3  C3  <0> d          -0.017   1.375   0.010  0.00  0.00    -0.071 A 
ATOM      4  C4  <0> d           1.185   2.087   0.002  0.00  0.00    -0.010 A 
ATOM      5  C5  <0> d           2.398   1.395  -0.013  0.00  0.00    -0.071 A 
ATOM      6  C6  <0> d           2.402   0.016  -0.021  0.00  0.00    -0.082 A 
ATOM      7  H1  <0> d           1.217  -1.763  -0.019  0.00  0.00     0.083 H 
ATOM      8  H2  <0> d          -0.926  -0.555   0.008  0.00  0.00     0.083 H 
ATOM      9  H3  <0> d          -0.959   1.904   0.017  0.00  0.00     0.084 H 
ATOM     10  H4  <0> d           3.331   1.939  -0.019  0.00  0.00     0.084 H 
ATOM     11  H5  <0> d           3.340  -0.520  -0.033  0.00  0.00     0.083 H 
ENDROOT
BRANCH   4  12
ATOM     12  C7  <0> d           1.173   3.563   0.009  0.00  0.00     0.059 A 
ATOM     13  C8  <0> d           1.944   4.857   0.015  0.00  0.00     0.055 A 
ATOM     14  N1  <0> d           0.492   4.662   0.022  0.00  0.00    -0.285 NA
ATOM     15  H6  <0> d           2.427   5.170   0.941  0.00  0.00     0.076 H 
ATOM     16  H7  <0> d           2.423   5.179  -0.910  0.00  0.00     0.076 H 
ENDBRANCH   4  12
TORSDOF 1
