REMARK  1 active torsions:
REMARK  status: ('A' for Active; 'I' for Inactive)
REMARK    1  A    between atoms: C4_4  and  C7_7 
ROOT
ATOM      1  C1  <0> d          -0.017   1.379   0.010  0.00  0.00    -0.083 A 
ATOM      2  C2  <0> d           1.169   2.093   0.002  0.00  0.00    -0.082 A 
ATOM      3  C3  <0> d           2.377   1.428  -0.013  0.00  0.00    -0.069 A 
ATOM      4  C4  <0> d           2.403   0.033  -0.021  0.00  0.00     0.015 A 
ATOM      5  C5  <0> d           1.205  -0.680  -0.013  0.00  0.00    -0.069 A 
ATOM      6  C6  <0> d           0.002  -0.004   0.002  0.00  0.00    -0.082 A 
ATOM      7  H1  <0> d          -0.960   1.904   0.026  0.00  0.00     0.083 H 
ATOM      8  H2  <0> d           1.147   3.172   0.008  0.00  0.00     0.083 H 
ATOM      9  H3  <0> d           3.302   1.986  -0.019  0.00  0.00     0.085 H 
ATOM     10  H4  <0> d           1.218  -1.760  -0.019  0.00  0.00     0.085 H 
ATOM     11  H5  <0> d          -0.926  -0.556   0.008  0.00  0.00     0.083 H 
ENDROOT
BRANCH   4  12
ATOM     12  C7  <0> d           3.696  -0.686  -0.037  0.00  0.00     0.206 A 
ATOM     13  N4  <0> d           3.874  -2.008  -0.046  0.00  0.00    -0.106 NA
ATOM     14  N3  <0> d           5.144  -2.228  -0.064  0.00  0.00    -0.021 NA
ATOM     15  N2  <0> d           5.770  -1.104  -0.057  0.00  0.00    -0.021 NA
ATOM     16  N1  <0> d           4.913  -0.140  -0.041  0.00  0.00    -0.106 NA
ENDBRANCH   4  12
TORSDOF 1
