REMARK  2 active torsions:
REMARK  status: ('A' for Active; 'I' for Inactive)
REMARK    1  A    between atoms: C1_1  and  C2_2 
REMARK    2  A    between atoms: C3_3  and  C8_9 
ROOT
ATOM      1  C2  <0> d           2.374   1.438  -0.005  0.00  0.00    -0.006 A 
ATOM      2  C3  <0> d           1.152   2.064  -0.258  0.00  0.00     0.049 A 
ATOM      3  C4  <0> d          -0.024   1.312  -0.258  0.00  0.00    -0.066 A 
ATOM      4  C5  <0> d           0.026  -0.043  -0.007  0.00  0.00    -0.079 A 
ATOM      5  C6  <0> d           1.238  -0.659   0.245  0.00  0.00    -0.045 A 
ATOM      6  C7  <0> d           2.411   0.080   0.246  0.00  0.00     0.123 A 
ATOM      7  F1  <0> d           3.592  -0.529   0.492  0.00  0.00    -0.206 F 
ATOM      8  H4  <0> d          -0.972   1.791  -0.458  0.00  0.00     0.085 H 
ATOM      9  H5  <0> d          -0.884  -0.625  -0.006  0.00  0.00     0.083 H 
ATOM     10  H6  <0> d           1.272  -1.721   0.441  0.00  0.00     0.088 H 
ENDROOT
BRANCH   1  11
ATOM     11  C1  <0> d           3.649   2.241  -0.004  0.00  0.00    -0.047 C 
ATOM     12  H1  <0> d           4.010   2.351  -1.026  0.00  0.00     0.033 H 
ATOM     13  H2  <0> d           3.457   3.227   0.422  0.00  0.00     0.033 H 
ATOM     14  H3  <0> d           4.402   1.728   0.595  0.00  0.00     0.033 H 
ENDBRANCH   1  11
BRANCH   2  15
ATOM     15  C8  <0> d           1.105   3.516  -0.527  0.00  0.00     0.210 C 
ATOM     16  O1  <0> d           2.136   4.147  -0.639  0.00  0.00    -0.644 OA
ATOM     17  O2  <0> d          -0.083   4.140  -0.647  0.00  0.00    -0.644 OA
ENDBRANCH   2  15
TORSDOF 2
