REMARK  0 active torsions:
REMARK  status: ('A' for Active; 'I' for Inactive)
ROOT
ATOM      1  C1  <0> d           3.554   0.774  -0.028  0.00  0.00    -0.051 A 
ATOM      2  C2  <0> d           4.159   2.018  -0.027  0.00  0.00    -0.025 A 
ATOM      3  C3  <0> d           3.372   3.157  -0.013  0.00  0.00     0.210 A 
ATOM      4  N1  <0> d           2.054   3.065  -0.001  0.00  0.00    -0.222 NA
ATOM      5  C4  <0> d           1.443   1.899  -0.002  0.00  0.00     0.073 A 
ATOM      6  C5  <0> d           2.160   0.710  -0.015  0.00  0.00     0.060 A 
ATOM      7  N2  <0> d           1.292  -0.382  -0.012  0.00  0.00    -0.325 N 
ATOM      8  C6  <0> d           0.002  -0.004   0.002  0.00  0.00     0.228 A 
ATOM      9  O1  <0> d          -0.964  -0.738   0.007  0.00  0.00    -0.273 OA
ATOM     10  C7  <0> d          -0.018   1.510   0.010  0.00  0.00     0.052 A 
ATOM     11  F1  <0> d           3.957   4.375  -0.012  0.00  0.00    -0.184 F 
ATOM     12  H1  <0> d           4.148  -0.129  -0.039  0.00  0.00     0.087 H 
ATOM     13  H2  <0> d           5.236   2.100  -0.037  0.00  0.00     0.090 H 
ATOM     14  H3  <0> d           1.585  -1.307  -0.020  0.00  0.00     0.169 HD
ATOM     15  H4  <0> d          -0.522   1.889  -0.879  0.00  0.00     0.056 H 
ATOM     16  H5  <0> d          -0.505   1.880   0.913  0.00  0.00     0.056 H 
ENDROOT
TORSDOF 0
