REMARK  0 active torsions:
REMARK  status: ('A' for Active; 'I' for Inactive)
ROOT
ATOM      1  C1  <0> d           0.702  -2.667  -0.019  0.00  0.00    -0.057 A 
ATOM      2  C2  <0> d           1.683  -1.725  -0.023  0.00  0.00    -0.035 A 
ATOM      3  C3  <0> d           1.328  -0.362  -0.013  0.00  0.00     0.157 A 
ATOM      4  N1  <0> d           2.028   0.761  -0.013  0.00  0.00    -0.131 NA
ATOM      5  N2  <0> d           1.226   1.767  -0.000  0.00  0.00    -0.143 NA
ATOM      6  C4  <0> d          -0.016   1.356   0.009  0.00  0.00     0.093 A 
ATOM      7  N3  <0> d           0.002  -0.004   0.002  0.00  0.00    -0.296 N 
ATOM      8  C5  <0> d          -0.972  -0.959   0.006  0.00  0.00     0.009 A 
ATOM      9  C6  <0> d          -0.647  -2.270  -0.004  0.00  0.00     0.050 A 
ATOM     10 Cl1  <0> d          -1.901  -3.471   0.001  0.00  0.00    -0.083 Cl
ATOM     11  H1  <0> d           0.958  -3.716  -0.027  0.00  0.00     0.086 H 
ATOM     12  H2  <0> d           2.722  -2.018  -0.035  0.00  0.00     0.089 H 
ATOM     13  H3  <0> d          -0.896   1.983   0.017  0.00  0.00     0.147 H 
ATOM     14  H4  <0> d          -2.011  -0.665   0.018  0.00  0.00     0.115 H 
ENDROOT
TORSDOF 0
