REMARK  2 active torsions:
REMARK  status: ('A' for Active; 'I' for Inactive)
REMARK    1  A    between atoms: C1_1  and  N1_2 
REMARK    2  A    between atoms: N1_2  and  C2_3 
ROOT
ATOM      1  C2  <0> d          -1.198  -0.719   0.010  0.00  0.00     0.032 A 
ATOM      2  C3  <0> d          -2.411  -0.042   0.019  0.00  0.00    -0.020 A 
ATOM      3  C4  <0> d          -3.597  -0.752   0.026  0.00  0.00     0.120 A 
ATOM      4  C5  <0> d          -3.576  -2.137   0.024  0.00  0.00    -0.025 A 
ATOM      5  C6  <0> d          -2.369  -2.813   0.015  0.00  0.00     0.039 A 
ATOM      6  C7  <0> d          -1.180  -2.107   0.002  0.00  0.00    -0.036 A 
ATOM      7 Cl1  <0> d          -2.347  -4.549   0.013  0.00  0.00    -0.084 Cl
ATOM      8  F1  <0> d          -4.778  -0.095   0.035  0.00  0.00    -0.206 F 
ATOM      9  H5  <0> d          -2.427   1.038   0.021  0.00  0.00     0.091 H 
ATOM     10  H6  <0> d          -4.504  -2.691   0.030  0.00  0.00     0.090 H 
ATOM     11  H7  <0> d          -0.238  -2.636  -0.009  0.00  0.00     0.089 H 
ENDROOT
BRANCH   1  12
ATOM     12  N1  <0> d           0.002  -0.004   0.002  0.00  0.00    -0.394 N 
ATOM     13  H4  <0> d           0.849  -0.478  -0.009  0.00  0.00     0.159 HD
BRANCH  12  14
ATOM     14  C1  <0> d          -0.018   1.461   0.010  0.00  0.00    -0.021 C 
ATOM     15  H1  <0> d           1.005   1.838   0.002  0.00  0.00     0.056 H 
ATOM     16  H2  <0> d          -0.545   1.822  -0.873  0.00  0.00     0.056 H 
ATOM     17  H3  <0> d          -0.528   1.812   0.907  0.00  0.00     0.056 H 
ENDBRANCH  12  14
ENDBRANCH   1  12
TORSDOF 2
