REMARK  1 active torsions:
REMARK  status: ('A' for Active; 'I' for Inactive)
REMARK    1  A    between atoms: C3_3  and  C7_9 
REMARK       I    between atoms: C7_9  and  N3_11 
ROOT
ATOM      1  C1  <0> d          -0.017   1.395   0.010  0.00  0.00    -0.059 A 
ATOM      2  C2  <0> d           1.192   2.069   0.002  0.00  0.00    -0.048 A 
ATOM      3  C3  <0> d           2.378   1.338  -0.013  0.00  0.00     0.123 A 
ATOM      4  N1  <0> d           2.360   0.010  -0.020  0.00  0.00    -0.254 NA
ATOM      5  C4  <0> d           1.234  -0.667  -0.013  0.00  0.00     0.023 A 
ATOM      6  C5  <0> d           0.002  -0.004   0.002  0.00  0.00     0.062 A 
ATOM      7  C6  <0> d          -1.222  -0.747   0.010  0.00  0.00     0.101 C 
ATOM      8  N2  <0> d          -2.193  -1.336   0.017  0.00  0.00    -0.191 NA
ATOM      9  H1  <0> d          -0.952   1.936   0.026  0.00  0.00     0.086 H 
ATOM     10  H2  <0> d           1.216   3.149   0.007  0.00  0.00     0.087 H 
ATOM     11  H3  <0> d           1.260  -1.747  -0.019  0.00  0.00     0.117 H 
ENDROOT
BRANCH   3  12
ATOM     12  C7  <0> d           3.677   2.051  -0.022  0.00  0.00     0.268 C 
ATOM     13  O1  <0> d           3.703   3.266  -0.017  0.00  0.00    -0.266 OA
ATOM     14  N3  <0> d           4.829   1.353  -0.037  0.00  0.00    -0.365 N 
ATOM     15  H4  <0> d           4.809   0.383  -0.042  0.00  0.00     0.159 HD
ATOM     16  H5  <0> d           5.679   1.819  -0.043  0.00  0.00     0.159 HD
ENDBRANCH   3  12
TORSDOF 1
