REMARK  1 active torsions:
REMARK  status: ('A' for Active; 'I' for Inactive)
REMARK    1  A    between atoms: C4_5  and  N3_7 
ROOT
ATOM      1  C1  <0> d          -0.016   1.314   0.009  0.00  0.00     0.036 A 
ATOM      2  C2  <0> d           1.206   2.012   0.001  0.00  0.00     0.053 A 
ATOM      3  C3  <0> d           2.391   1.268  -0.014  0.00  0.00     0.069 A 
ATOM      4  N1  <0> d           2.322  -0.050  -0.021  0.00  0.00    -0.067 NA
ATOM      5  C4  <0> d           1.149  -0.671  -0.014  0.00  0.00     0.720 A 
ATOM      6  N2  <0> d           0.002  -0.004   0.002  0.00  0.00    -0.074 NA
ATOM      7  C5  <0> d           3.572   2.205  -0.020  0.00  0.00    -0.017 A 
ATOM      8  C6  <0> d           2.993   3.628  -0.006  0.00  0.00     0.000 A 
ATOM      9  C7  <0> d           1.494   3.449   0.007  0.00  0.00     0.163 A 
ATOM     10  O1  <0> d           0.671   4.340   0.019  0.00  0.00    -0.292 OA
ATOM     11  H1  <0> d          -0.953   1.850   0.025  0.00  0.00     0.117 H 
ATOM     12  H4  <0> d           4.184   2.042   0.867  0.00  0.00     0.043 H 
ATOM     13  H5  <0> d           4.168   2.052  -0.920  0.00  0.00     0.043 H 
ATOM     14  H6  <0> d           3.318   4.159   0.888  0.00  0.00     0.045 H 
ATOM     15  H7  <0> d           3.301   4.169  -0.901  0.00  0.00     0.045 H 
ENDROOT
BRANCH   5  16
ATOM     16  N3  <0> d           1.122  -2.049  -0.022  0.00  0.00    -0.231 N 
ATOM     17  H2  <0> d           1.952  -2.551  -0.033  0.00  0.00     0.174 HD
ATOM     18  H3  <0> d           0.273  -2.517  -0.018  0.00  0.00     0.174 HD
ENDBRANCH   5  16
TORSDOF 1
