REMARK  4 active torsions:
REMARK  status: ('A' for Active; 'I' for Inactive)
REMARK    1  A    between atoms: C1_1  and  C2_2 
REMARK    2  A    between atoms: C1_1  and  O5_13 
REMARK    3  A    between atoms: C3_4  and  O4_12 
REMARK    4  A    between atoms: C4_6  and  O3_11 
ROOT
ATOM      1  C2  <0> d           0.002  -0.004   0.002  0.00  0.00     0.096 C 
ATOM      2  H1  <0> d           0.594  -0.376  -0.834  0.00  0.00     0.091 H 
ATOM      3  C3  <0> d          -1.441  -0.574  -0.049  0.00  0.00     0.097 C 
ATOM      4  H2  <0> d          -1.780  -0.695  -1.078  0.00  0.00     0.091 H 
ATOM      5  C4  <0> d          -1.233  -1.948   0.637  0.00  0.00     0.146 C 
ATOM      6  H3  <0> d          -2.052  -2.160   1.324  0.00  0.00     0.103 H 
ATOM      7  C5  <0> d           0.070  -1.785   1.396  0.00  0.00     0.291 C 
ATOM      8  O1  <0> d           0.630  -2.651   2.024  0.00  0.00    -0.262 OA
ATOM      9  O2  <0> d           0.506  -0.516   1.254  0.00  0.00    -0.309 OA
ENDROOT
BRANCH   1  10
ATOM     10  C1  <0> d          -0.019   1.526   0.010  0.00  0.00     0.044 C 
ATOM     11  H4  <0> d          -0.546   1.887  -0.873  0.00  0.00     0.078 H 
ATOM     12  H5  <0> d          -0.529   1.877   0.907  0.00  0.00     0.078 H 
BRANCH  10  13
ATOM     13  O5  <0> d           1.322   2.020   0.000  0.00  0.00    -0.398 OA
ATOM     14  H8  <0> d           1.385   2.985   0.005  0.00  0.00     0.209 HD
ENDBRANCH  10  13
ENDBRANCH   1  10
BRANCH   3  15
ATOM     15  O4  <0> d          -2.346   0.244   0.696  0.00  0.00    -0.390 OA
ATOM     16  H7  <0> d          -3.259  -0.074   0.691  0.00  0.00     0.210 HD
ENDBRANCH   3  15
BRANCH   5  17
ATOM     17  O3  <0> d          -1.121  -2.984  -0.341  0.00  0.00    -0.383 OA
ATOM     18  H6  <0> d          -0.989  -3.866   0.034  0.00  0.00     0.210 HD
ENDBRANCH   5  17
TORSDOF 4
