REMARK  6 active torsions:
REMARK  status: ('A' for Active; 'I' for Inactive)
REMARK    1  A    between atoms: C1_1  and  C2_2 
REMARK    2  A    between atoms: C2_2  and  C3_3 
REMARK    3  A    between atoms: C2_2  and  C4_4 
REMARK    4  A    between atoms: C4_4  and  C5_6 
REMARK    5  A    between atoms: C5_6  and  C6_7 
REMARK    6  A    between atoms: C5_6  and  C7_8 
ROOT
ATOM      1  C4  <0> d           1.401   1.607  -0.003  0.00  0.00     0.133 C 
ATOM      2  O1  <0> d           1.649   2.669  -0.522  0.00  0.00    -0.297 OA
ENDROOT
BRANCH   1   3
ATOM      3  C2  <0> d          -0.013   1.086   0.008  0.00  0.00    -0.003 C 
ATOM      4  H4  <0> d           0.001   0.086   0.002  0.00  0.00     0.050 H 
BRANCH   3   5
ATOM      5  C1  <0> d          -0.753   1.593  -1.232  0.00  0.00    -0.067 C 
ATOM      6  H1  <0> d          -0.242   1.241  -2.128  0.00  0.00     0.028 H 
ATOM      7  H2  <0> d          -1.775   1.215  -1.224  0.00  0.00     0.028 H 
ATOM      8  H3  <0> d          -0.767   2.683  -1.226  0.00  0.00     0.028 H 
ENDBRANCH   3   5
BRANCH   3   9
ATOM      9  C3  <0> d          -0.729   1.579   1.267  0.00  0.00    -0.067 C 
ATOM     10  H5  <0> d          -0.744   2.669   1.273  0.00  0.00     0.028 H 
ATOM     11  H6  <0> d          -1.751   1.202   1.275  0.00  0.00     0.028 H 
ATOM     12  H7  <0> d          -0.202   1.218   2.150  0.00  0.00     0.028 H 
ENDBRANCH   3   9
ENDBRANCH   1   3
BRANCH   1  13
ATOM     13  C5  <0> d           2.505   0.804   0.635  0.00  0.00    -0.003 C 
ATOM     14  H8  <0> d           2.133   0.268   1.392  0.00  0.00     0.050 H 
BRANCH  13  15
ATOM     15  C6  <0> d           3.117  -0.137  -0.404  0.00  0.00    -0.067 C 
ATOM     16  H9  <0> d           3.916  -0.718   0.057  0.00  0.00     0.028 H 
ATOM     17  H10 <0> d           2.348  -0.812  -0.780  0.00  0.00     0.028 H 
ATOM     18  H11 <0> d           3.523   0.447  -1.230  0.00  0.00     0.028 H 
ENDBRANCH  13  15
BRANCH  13  19
ATOM     19  C7  <0> d           3.585   1.751   1.163  0.00  0.00    -0.067 C 
ATOM     20  H12 <0> d           3.150   2.422   1.903  0.00  0.00     0.028 H 
ATOM     21  H13 <0> d           4.384   1.170   1.624  0.00  0.00     0.028 H 
ATOM     22  H14 <0> d           3.991   2.336   0.337  0.00  0.00     0.028 H 
ENDBRANCH  13  19
ENDBRANCH   1  13
TORSDOF 6
