REMARK  0 active torsions:
REMARK  status: ('A' for Active; 'I' for Inactive)
ROOT
ATOM      1  C1  <0> d           1.419   2.054  -0.001  0.00  0.00    -0.004 C 
ATOM      2  C2  <0> d          -0.019   1.525   0.010  0.00  0.00     0.002 C 
ATOM      3  C3  <0> d           0.002  -0.004   0.002  0.00  0.00     0.244 C 
ATOM      4  C4  <0> d           0.661  -0.521   1.282  0.00  0.00     0.002 C 
ATOM      5  C5  <0> d           2.125  -0.069   1.319  0.00  0.00    -0.004 C 
ATOM      6  C6  <0> d           2.168   1.435   1.159  0.00  0.00     0.127 C 
ATOM      7  O1  <0> d           2.785   2.123   1.936  0.00  0.00    -0.298 OA
ATOM      8  F1  <0> d          -1.309  -0.486  -0.073  0.00  0.00    -0.206 F 
ATOM      9  F2  <0> d           0.726  -0.453  -1.108  0.00  0.00    -0.206 F 
ATOM     10  H1  <0> d           1.869   1.806  -0.859  0.00  0.00     0.044 H 
ATOM     11  H2  <0> d           1.412   3.139   0.107  0.00  0.00     0.044 H 
ATOM     12  H3  <0> d          -0.545   1.887  -0.873  0.00  0.00     0.042 H 
ATOM     13  H4  <0> d          -0.528   1.877   0.907  0.00  0.00     0.042 H 
ATOM     14  H5  <0> d           0.135  -0.121   2.149  0.00  0.00     0.042 H 
ATOM     15  H6  <0> d           0.616  -1.610   1.300  0.00  0.00     0.042 H 
ATOM     16  H7  <0> d           2.533  -0.331   2.193  0.00  0.00     0.044 H 
ATOM     17  H8  <0> d           2.675  -0.543   0.506  0.00  0.00     0.044 H 
ENDROOT
TORSDOF 0
