REMARK  3 active torsions:
REMARK  status: ('A' for Active; 'I' for Inactive)
REMARK    1  A    between atoms: C1_1  and  C2_2 
REMARK    2  A    between atoms: C2_2  and  N1_3 
REMARK    3  A    between atoms: C3_4  and  N3_12 
ROOT
ATOM      1  N1  <0> d          -1.234   3.009   0.030  0.00  0.00    -0.286 N 
ATOM      2  C3  <0> d          -1.208   1.635   0.017  0.00  0.00     0.110 A 
ATOM      3  C4  <0> d          -2.386   0.942   0.018  0.00  0.00     0.025 A 
ATOM      4  C5  <0> d          -3.596   1.653   0.029  0.00  0.00     0.252 A 
ATOM      5  O1  <0> d          -4.659   1.056   0.031  0.00  0.00    -0.268 OA
ATOM      6  N2  <0> d          -3.576   3.001   0.036  0.00  0.00    -0.275 N 
ATOM      7  H1  <0> d          -4.437   3.509   0.044  0.00  0.00     0.173 HD
ATOM      8  C6  <0> d          -2.407   3.667   0.034  0.00  0.00     0.330 A 
ATOM      9  O2  <0> d          -2.411   4.883   0.040  0.00  0.00    -0.246 OA
ATOM     10  H7  <0> d          -2.386  -0.138   0.013  0.00  0.00     0.098 H 
ENDROOT
BRANCH   1  11
ATOM     11  C2  <0> d           0.024   3.761   0.034  0.00  0.00     0.003 C 
ATOM     12  H5  <0> d          -0.120   4.706   0.557  0.00  0.00     0.064 H 
ATOM     13  H6  <0> d           0.794   3.179   0.540  0.00  0.00     0.064 H 
BRANCH  11  14
ATOM     14  C1  <0> d           0.457   4.037  -1.407  0.00  0.00    -0.060 C 
ATOM     15  H2  <0> d           0.601   3.091  -1.931  0.00  0.00     0.029 H 
ATOM     16  H3  <0> d          -0.313   4.619  -1.913  0.00  0.00     0.029 H 
ATOM     17  H4  <0> d           1.393   4.596  -1.405  0.00  0.00     0.029 H 
ENDBRANCH  11  14
ENDBRANCH   1  11
BRANCH   2  18
ATOM     18  N3  <0> d          -0.011   0.966   0.007  0.00  0.00    -0.385 N 
ATOM     19  H8  <0> d           0.002  -0.004   0.002  0.00  0.00     0.157 HD
ATOM     20  H9  <0> d           0.822   1.462   0.002  0.00  0.00     0.157 HD
ENDBRANCH   2  18
TORSDOF 3
