REMARK  2 active torsions:
REMARK  status: ('A' for Active; 'I' for Inactive)
REMARK    1  A    between atoms: C3_3  and  C5_6 
REMARK    2  A    between atoms: C5_6  and  N2_10 
ROOT
ATOM      1  C5  <0> d          -1.054   5.133   0.037  0.00  0.00     0.243 C 
ATOM      2  H1  <0> d          -0.287   5.840   0.387  0.00  0.00     0.120 H 
ATOM      3  C6  <0> d          -1.466   5.513  -1.324  0.00  0.00     0.100 C 
ATOM      4  N1  <0> d          -1.784   5.806  -2.374  0.00  0.00    -0.195 NA
ENDROOT
BRANCH   1   5
ATOM      5  C3  <0> d          -0.518   3.725   0.025  0.00  0.00     0.029 A 
ATOM      6  C2  <0> d           0.770   3.301   0.012  0.00  0.00    -0.067 A 
ATOM      7  C1  <0> d           1.029   1.944   0.003  0.00  0.00    -0.076 A 
ATOM      8  H3  <0> d           1.581   4.014   0.008  0.00  0.00     0.085 H 
ATOM      9  C4  <0> d          -0.013   1.076   0.008  0.00  0.00    -0.044 A 
ATOM     10  H2  <0> d           2.045   1.580  -0.009  0.00  0.00     0.084 H 
ATOM     11  S1  <0> d          -1.415   2.181   0.019  0.00  0.00    -0.103 SA
ATOM     12  H4  <0> d           0.002  -0.004   0.002  0.00  0.00     0.095 H 
ENDBRANCH   1   5
BRANCH   1  13
ATOM     13  N2  <0> d          -2.211   5.210   0.939  0.00  0.00     0.101 N 
ATOM     14  H5  <0> d          -2.602   6.238   0.947  0.00  0.00     0.315 HD
ATOM     15  H6  <0> d          -2.995   4.522   0.588  0.00  0.00     0.315 HD
ENDBRANCH   1  13
TORSDOF 2
