REMARK  3 active torsions:
REMARK  status: ('A' for Active; 'I' for Inactive)
REMARK    1  A    between atoms: C1_1  and  C2_2 
REMARK    2  A    between atoms: C2_2  and  C6_7 
REMARK    3  A    between atoms: C6_7  and  O2_8 
ROOT
ATOM      1  C2  <0> d           0.002  -0.004   0.002  0.00  0.00     0.001 C 
ATOM      2  C3  <0> d          -1.433  -0.577   0.157  0.00  0.00    -0.035 C 
ATOM      3  C4  <0> d          -1.597  -0.545   1.698  0.00  0.00     0.020 C 
ATOM      4  O1  <0> d          -0.301  -0.876   2.220  0.00  0.00    -0.390 OA
ATOM      5  C5  <0> d           0.711  -0.551   1.260  0.00  0.00     0.028 C 
ATOM      6  H4  <0> d          -2.167   0.065  -0.330  0.00  0.00     0.037 H 
ATOM      7  H5  <0> d          -1.492  -1.597  -0.223  0.00  0.00     0.037 H 
ATOM      8  H6  <0> d          -1.895   0.451   2.026  0.00  0.00     0.074 H 
ATOM      9  H7  <0> d          -2.333  -1.285   2.015  0.00  0.00     0.074 H 
ATOM     10  H8  <0> d           1.279  -1.445   1.004  0.00  0.00     0.075 H 
ATOM     11  H9  <0> d           1.378   0.209   1.668  0.00  0.00     0.075 H 
ENDROOT
BRANCH   1  12
ATOM     12  C1  <0> d          -0.019   1.526   0.010  0.00  0.00    -0.065 C 
ATOM     13  H1  <0> d           1.004   1.903   0.003  0.00  0.00     0.028 H 
ATOM     14  H2  <0> d          -0.546   1.887  -0.873  0.00  0.00     0.028 H 
ATOM     15  H3  <0> d          -0.529   1.877   0.907  0.00  0.00     0.028 H 
ENDBRANCH   1  12
BRANCH   1  16
ATOM     16  C6  <0> d           0.669  -0.530  -1.271  0.00  0.00     0.025 C 
ATOM     17  H10 <0> d           0.683  -1.620  -1.249  0.00  0.00     0.075 H 
ATOM     18  H11 <0> d           0.107  -0.191  -2.142  0.00  0.00     0.075 H 
BRANCH  16  19
ATOM     19  O2  <0> d           2.008  -0.037  -1.346  0.00  0.00    -0.400 OA
ATOM     20  H12 <0> d           2.492  -0.331  -2.130  0.00  0.00     0.209 HD
ENDBRANCH  16  19
ENDBRANCH   1  16
TORSDOF 3
