REMARK  2 active torsions:
REMARK  status: ('A' for Active; 'I' for Inactive)
REMARK    1  A    between atoms: C2_2  and  C3_3 
REMARK    2  A    between atoms: C3_3  and  N1_4 
ROOT
ATOM      1  C1  <0> d           0.018  -1.178  -0.004  0.00  0.00    -0.152 C 
ATOM      2  C2  <0> d           0.002  -0.004   0.002  0.00  0.00    -0.097 C 
ATOM      3  H1  <0> d           0.032  -2.228  -0.010  0.00  0.00     0.166 H 
ENDROOT
BRANCH   2   4
ATOM      4  C3  <0> d          -0.018   1.468   0.010  0.00  0.00     0.053 C 
ATOM      5  H2  <0> d          -0.545   1.829  -0.873  0.00  0.00     0.084 H 
ATOM      6  H3  <0> d          -0.528   1.819   0.907  0.00  0.00     0.084 H 
BRANCH   4   7
ATOM      7  N1  <0> d           1.357   1.975  -0.000  0.00  0.00    -0.345 N 
ATOM      8  C7  <0> d           2.122   2.163  -1.129  0.00  0.00     0.045 A 
ATOM      9  C6  <0> d           3.368   2.663  -0.708  0.00  0.00    -0.008 A 
ATOM     10  C8  <0> d           1.891   1.963  -2.486  0.00  0.00    -0.056 A 
ATOM     11  C5  <0> d           3.295   2.751   0.753  0.00  0.00    -0.056 A 
ATOM     12  C11 <0> d           4.356   2.954  -1.650  0.00  0.00    -0.071 A 
ATOM     13  C4  <0> d           2.073   2.327   1.111  0.00  0.00    -0.018 A 
ATOM     14  H5  <0> d           4.077   3.092   1.415  0.00  0.00     0.086 H 
ATOM     15  H4  <0> d           1.709   2.273   2.126  0.00  0.00     0.111 H 
ATOM     16  C10 <0> d           4.111   2.743  -2.978  0.00  0.00    -0.082 A 
ATOM     17  H9  <0> d           5.315   3.334  -1.329  0.00  0.00     0.084 H 
ATOM     18  C9  <0> d           2.883   2.253  -3.399  0.00  0.00    -0.081 A 
ATOM     19  H8  <0> d           4.878   2.965  -3.705  0.00  0.00     0.083 H 
ATOM     20  H7  <0> d           2.702   2.098  -4.452  0.00  0.00     0.083 H 
ATOM     21  H6  <0> d           0.939   1.583  -2.824  0.00  0.00     0.087 H 
ENDBRANCH   4   7
ENDBRANCH   2   4
TORSDOF 2
