REMARK  9 active torsions:
REMARK  status: ('A' for Active; 'I' for Inactive)
REMARK    1  A    between atoms: C1_1  and  C2_2 
REMARK    2  A    between atoms: C2_2  and  C3_3 
REMARK    3  A    between atoms: C3_3  and  C4_4 
REMARK    4  A    between atoms: C4_4  and  C5_5 
REMARK    5  A    between atoms: C4_4  and  C6_7 
REMARK    6  A    between atoms: C4_4  and  C7_9 
REMARK    7  A    between atoms: C5_5  and  O1_6 
REMARK    8  A    between atoms: C6_7  and  O2_8 
REMARK    9  A    between atoms: C7_9  and  O3_10 
ROOT
ATOM      1  C4  <0> d           1.145   3.085   0.008  0.00  0.00     0.023 C 
ENDROOT
BRANCH   1   2
ATOM      2  C3  <0> d           0.392   3.519   1.266  0.00  0.00    -0.052 C 
ATOM      3  H6  <0> d           0.291   4.605   1.273  0.00  0.00     0.034 H 
ATOM      4  H7  <0> d          -0.598   3.063   1.274  0.00  0.00     0.034 H 
BRANCH   2   5
ATOM      5  C2  <0> d           1.169   3.072   2.506  0.00  0.00    -0.068 C 
ATOM      6  H4  <0> d           1.270   1.986   2.499  0.00  0.00     0.032 H 
ATOM      7  H5  <0> d           2.158   3.529   2.499  0.00  0.00     0.032 H 
BRANCH   5   8
ATOM      8  C1  <0> d           0.415   3.506   3.765  0.00  0.00    -0.076 C 
ATOM      9  H1  <0> d           0.315   4.591   3.772  0.00  0.00     0.027 H 
ATOM     10  H2  <0> d          -0.574   3.049   3.772  0.00  0.00     0.027 H 
ATOM     11  H3  <0> d           0.969   3.187   4.648  0.00  0.00     0.027 H 
ENDBRANCH   5   8
ENDBRANCH   2   5
ENDBRANCH   1   2
BRANCH   1  12
ATOM     12  C5  <0> d           1.286   1.562  -0.002  0.00  0.00     0.028 C 
ATOM     13  H8  <0> d           1.840   1.243   0.881  0.00  0.00     0.075 H 
ATOM     14  H9  <0> d           1.823   1.252  -0.899  0.00  0.00     0.075 H 
BRANCH  12  15
ATOM     15  O1  <0> d          -0.011   0.963   0.007  0.00  0.00    -0.400 OA
ATOM     16  H10 <0> d           0.002  -0.004   0.002  0.00  0.00     0.209 HD
ENDBRANCH  12  15
ENDBRANCH   1  12
BRANCH   1  17
ATOM     17  C6  <0> d           2.534   3.726  -0.002  0.00  0.00     0.028 C 
ATOM     18  H11 <0> d           3.088   3.407   0.881  0.00  0.00     0.075 H 
ATOM     19  H12 <0> d           3.071   3.417  -0.899  0.00  0.00     0.075 H 
BRANCH  17  20
ATOM     20  O2  <0> d           2.402   5.149   0.007  0.00  0.00    -0.400 OA
ATOM     21  H13 <0> d           3.245   5.623   0.001  0.00  0.00     0.209 HD
ENDBRANCH  17  20
ENDBRANCH   1  17
BRANCH   1  22
ATOM     22  C7  <0> d           0.368   3.533  -1.232  0.00  0.00     0.028 C 
ATOM     23  H14 <0> d          -0.622   3.076  -1.225  0.00  0.00     0.075 H 
ATOM     24  H15 <0> d           0.267   4.618  -1.225  0.00  0.00     0.075 H 
BRANCH  22  25
ATOM     25  O3  <0> d           1.071   3.127  -2.408  0.00  0.00    -0.400 OA
ATOM     26  H16 <0> d           0.635   3.378  -3.233  0.00  0.00     0.209 HD
ENDBRANCH  22  25
ENDBRANCH   1  22
TORSDOF 9
