REMARK  5 active torsions:
REMARK  status: ('A' for Active; 'I' for Inactive)
REMARK    1  A    between atoms: C1_1  and  C2_2 
REMARK    2  A    between atoms: C2_2  and  C3_3 
REMARK    3  A    between atoms: C2_2  and  C4_4 
REMARK    4  A    between atoms: C4_4  and  C5_5 
REMARK    5  A    between atoms: C5_5  and  C6_6 
ROOT
ATOM      1  C4  <0> d          -1.433  -0.534   0.013  0.00  0.00    -0.059 C 
ATOM      2  H8  <0> d          -1.419  -1.620   0.097  0.00  0.00     0.033 H 
ATOM      3  H9  <0> d          -1.970  -0.111   0.862  0.00  0.00     0.033 H 
ENDROOT
BRANCH   1   4
ATOM      4  C2  <0> d           0.002  -0.004   0.002  0.00  0.00    -0.061 C 
ATOM      5  H4  <0> d           0.512  -0.356  -0.895  0.00  0.00     0.038 H 
BRANCH   4   6
ATOM      6  C1  <0> d          -0.019   1.526   0.010  0.00  0.00    -0.073 C 
ATOM      7  H1  <0> d           1.004   1.903   0.003  0.00  0.00     0.028 H 
ATOM      8  H2  <0> d          -0.546   1.887  -0.873  0.00  0.00     0.028 H 
ATOM      9  H3  <0> d          -0.529   1.877   0.907  0.00  0.00     0.028 H 
ENDBRANCH   4   6
BRANCH   4  10
ATOM     10  C3  <0> d           0.742  -0.511   1.242  0.00  0.00    -0.073 C 
ATOM     11  H5  <0> d           0.232  -0.159   2.138  0.00  0.00     0.028 H 
ATOM     12  H6  <0> d           0.757  -1.601   1.236  0.00  0.00     0.028 H 
ATOM     13  H7  <0> d           1.765  -0.134   1.234  0.00  0.00     0.028 H 
ENDBRANCH   4  10
ENDBRANCH   1   4
BRANCH   1  14
ATOM     14  C5  <0> d          -2.135  -0.131  -1.286  0.00  0.00    -0.050 C 
ATOM     15  H10 <0> d          -2.150   0.956  -1.369  0.00  0.00     0.038 H 
ATOM     16  H11 <0> d          -1.598  -0.554  -2.135  0.00  0.00     0.038 H 
BRANCH  14  17
ATOM     17  C6  <0> d          -3.549  -0.653  -1.275  0.00  0.00    -0.112 C 
ATOM     18  C7  <0> d          -4.552   0.170  -1.458  0.00  0.00    -0.125 C 
ATOM     19  H13 <0> d          -4.366   1.222  -1.617  0.00  0.00     0.066 H 
ATOM     20  H14 <0> d          -5.565  -0.204  -1.450  0.00  0.00     0.066 H 
ATOM     21  H12 <0> d          -3.735  -1.705  -1.116  0.00  0.00     0.075 H 
ENDBRANCH  14  17
ENDBRANCH   1  14
TORSDOF 5
