REMARK  3 active torsions:
REMARK  status: ('A' for Active; 'I' for Inactive)
REMARK    1  A    between atoms: C1_1  and  C2_2 
REMARK    2  A    between atoms: C2_2  and  C3_3 
REMARK    3  A    between atoms: C8_8  and  N1_9 
ROOT
ATOM      1  C3  <0> d          -2.143   1.058   1.278  0.00  0.00    -0.031 A 
ATOM      2  C4  <0> d          -3.167   1.839   0.793  0.00  0.00    -0.055 A 
ATOM      3  C5  <0> d          -4.478   1.352   0.798  0.00  0.00     0.045 A 
ATOM      4  C6  <0> d          -4.745   0.077   1.307  0.00  0.00    -0.061 A 
ATOM      5  C7  <0> d          -3.716  -0.696   1.795  0.00  0.00    -0.056 A 
ATOM      6  C8  <0> d          -2.412  -0.211   1.783  0.00  0.00     0.032 A 
ATOM      7  C9  <0> d          -5.545   2.160   0.290  0.00  0.00     0.099 C 
ATOM      8  N2  <0> d          -6.393   2.801  -0.113  0.00  0.00    -0.191 NA
ATOM      9  H6  <0> d          -2.958   2.825   0.405  0.00  0.00     0.086 H 
ATOM     10  H7  <0> d          -5.757  -0.300   1.317  0.00  0.00     0.085 H 
ATOM     11  H8  <0> d          -3.921  -1.681   2.188  0.00  0.00     0.087 H 
ENDROOT
BRANCH   1  12
ATOM     12  C2  <0> d          -0.729   1.579   1.267  0.00  0.00    -0.042 C 
ATOM     13  H4  <0> d          -0.202   1.218   2.150  0.00  0.00     0.039 H 
ATOM     14  H5  <0> d          -0.744   2.669   1.273  0.00  0.00     0.039 H 
BRANCH  12  15
ATOM     15  C1  <0> d          -0.013   1.086   0.008  0.00  0.00    -0.073 C 
ATOM     16  H1  <0> d           0.002  -0.004   0.002  0.00  0.00     0.028 H 
ATOM     17  H2  <0> d           1.010   1.463   0.000  0.00  0.00     0.028 H 
ATOM     18  H3  <0> d          -0.540   1.447  -0.875  0.00  0.00     0.028 H 
ENDBRANCH  12  15
ENDBRANCH   1  12
BRANCH   6  19
ATOM     19  N1  <0> d          -1.374  -0.996   2.277  0.00  0.00    -0.399 N 
ATOM     20  H9  <0> d          -0.464  -0.659   2.268  0.00  0.00     0.156 HD
ATOM     21  H10 <0> d          -1.560  -1.880   2.629  0.00  0.00     0.156 HD
ENDBRANCH   6  19
TORSDOF 3
