REMARK  4 active torsions:
REMARK  status: ('A' for Active; 'I' for Inactive)
REMARK    1  A    between atoms: N1_3  and  C4_7 
REMARK    2  A    between atoms: C3_5  and  N3_6 
REMARK    3  A    between atoms: C4_7  and  C5_8 
REMARK    4  A    between atoms: C5_8  and  O1_9 
ROOT
ATOM      1  C1  <0> d          -0.017   1.400   0.010  0.00  0.00    -0.021 A 
ATOM      2  C2  <0> d           1.264   1.832  -0.000  0.00  0.00     0.002 A 
ATOM      3  N1  <0> d           2.067   0.748  -0.014  0.00  0.00    -0.277 N 
ATOM      4  N2  <0> d           1.255  -0.394  -0.012  0.00  0.00    -0.155 NA
ATOM      5  C3  <0> d           0.002  -0.004   0.002  0.00  0.00     0.142 A 
ATOM      6  H1  <0> d          -0.898   2.024   0.025  0.00  0.00     0.091 H 
ATOM      7  H2  <0> d           1.588   2.863   0.002  0.00  0.00     0.114 H 
ENDROOT
BRANCH   3   8
ATOM      8  C4  <0> d           3.532   0.761  -0.028  0.00  0.00     0.036 C 
ATOM      9  H5  <0> d           3.891   0.335  -0.965  0.00  0.00     0.070 H 
ATOM     10  H6  <0> d           3.887   1.788   0.064  0.00  0.00     0.070 H 
BRANCH   8  11
ATOM     11  C5  <0> d           4.061  -0.068   1.145  0.00  0.00     0.033 C 
ATOM     12  H7  <0> d           3.703   0.358   2.082  0.00  0.00     0.076 H 
ATOM     13  H8  <0> d           3.706  -1.094   1.053  0.00  0.00     0.076 H 
BRANCH  11  14
ATOM     14  O1  <0> d           5.490  -0.054   1.131  0.00  0.00    -0.399 OA
ATOM     15  H9  <0> d           5.895  -0.561   1.848  0.00  0.00     0.209 HD
ENDBRANCH  11  14
ENDBRANCH   8  11
ENDBRANCH   3   8
BRANCH   5  16
ATOM     16  N3  <0> d          -1.119  -0.842   0.009  0.00  0.00    -0.383 N 
ATOM     17  H3  <0> d          -2.011  -0.459   0.019  0.00  0.00     0.157 HD
ATOM     18  H4  <0> d          -1.005  -1.805   0.002  0.00  0.00     0.157 HD
ENDBRANCH   5  16
TORSDOF 4
