REMARK  3 active torsions:
REMARK  status: ('A' for Active; 'I' for Inactive)
REMARK    1  A    between atoms: C1_1  and  C2_2 
REMARK    2  A    between atoms: C2_2  and  C3_3 
REMARK    3  A    between atoms: C2_2  and  C4_4 
ROOT
ATOM      1  C2  <0> d           0.002  -0.004   0.002  0.00  0.00    -0.017 C 
ATOM      2  H4  <0> d           0.512  -0.356  -0.895  0.00  0.00     0.048 H 
ENDROOT
BRANCH   1   3
ATOM      3  C1  <0> d          -0.019   1.526   0.010  0.00  0.00    -0.068 C 
ATOM      4  H1  <0> d           1.004   1.903   0.003  0.00  0.00     0.028 H 
ATOM      5  H2  <0> d          -0.546   1.887  -0.873  0.00  0.00     0.028 H 
ATOM      6  H3  <0> d          -0.529   1.877   0.907  0.00  0.00     0.028 H 
ENDBRANCH   1   3
BRANCH   1   7
ATOM      7  C3  <0> d           0.742  -0.511   1.242  0.00  0.00    -0.068 C 
ATOM      8  H5  <0> d           0.757  -1.601   1.236  0.00  0.00     0.028 H 
ATOM      9  H6  <0> d           1.765  -0.134   1.234  0.00  0.00     0.028 H 
ATOM     10  H7  <0> d           0.232  -0.159   2.138  0.00  0.00     0.028 H 
ENDBRANCH   1   7
BRANCH   1  11
ATOM     11  C4  <0> d          -1.412  -0.526   0.013  0.00  0.00     0.060 A 
ATOM     12  N2  <0> d          -2.008  -0.842  -1.121  0.00  0.00    -0.153 NA
ATOM     13  N1  <0> d          -3.208  -1.295  -1.159  0.00  0.00    -0.138 NA
ATOM     14  C7  <0> d          -3.931  -1.464  -0.067  0.00  0.00     0.148 A 
ATOM     15  C6  <0> d          -3.390  -1.153   1.173  0.00  0.00    -0.040 A 
ATOM     16 Cl1  <0> d          -5.552  -2.074  -0.182  0.00  0.00    -0.061 Cl
ATOM     17  C5  <0> d          -2.090  -0.669   1.213  0.00  0.00    -0.054 A 
ATOM     18  H9  <0> d          -3.964  -1.285   2.079  0.00  0.00     0.088 H 
ATOM     19  H8  <0> d          -1.621  -0.412   2.152  0.00  0.00     0.086 H 
ENDBRANCH   1  11
TORSDOF 3
