REMARK  7 active torsions:
REMARK  status: ('A' for Active; 'I' for Inactive)
REMARK    1  A    between atoms: C1_1  and  C2_2 
REMARK    2  A    between atoms: C2_2  and  C3_3 
REMARK    3  A    between atoms: C3_3  and  C4_4 
REMARK    4  A    between atoms: C3_3  and  C6_6 
REMARK    5  A    between atoms: C4_4  and  C5_5 
REMARK    6  A    between atoms: C6_6  and  C7_7 
REMARK    7  A    between atoms: C6_6  and  C8_8 
ROOT
ATOM      1  C3  <0> d           0.707  -0.490  -1.238  0.00  0.00    -0.013 C 
ENDROOT
BRANCH   1   2
ATOM      2  C2  <0> d           0.002  -0.004   0.002  0.00  0.00    -0.037 C 
ATOM      3  H4  <0> d           0.529  -0.365   0.885  0.00  0.00     0.040 H 
ATOM      4  H5  <0> d          -1.020  -0.381   0.010  0.00  0.00     0.040 H 
BRANCH   2   5
ATOM      5  C1  <0> d          -0.019   1.526   0.010  0.00  0.00    -0.072 C 
ATOM      6  H1  <0> d           1.004   1.903   0.003  0.00  0.00     0.028 H 
ATOM      7  H2  <0> d          -0.546   1.887  -0.873  0.00  0.00     0.028 H 
ATOM      8  H3  <0> d          -0.529   1.877   0.907  0.00  0.00     0.028 H 
ENDBRANCH   2   5
ENDBRANCH   1   2
BRANCH   1   9
ATOM      9  C4  <0> d           1.184   0.370  -2.098  0.00  0.00    -0.147 C 
BRANCH   9  10
ATOM     10  C5  <0> d           1.661   1.231  -2.958  0.00  0.00    -0.007 C 
ATOM     11  H6  <0> d           1.044   1.578  -3.774  0.00  0.00     0.052 H 
ATOM     12  H7  <0> d           2.673   1.595  -2.854  0.00  0.00     0.052 H 
ENDBRANCH   9  10
ENDBRANCH   1   9
BRANCH   1  13
ATOM     13  C6  <0> d           0.848  -1.829  -1.462  0.00  0.00    -0.058 C 
BRANCH  13  14
ATOM     14  C7  <0> d           0.350  -2.727  -0.564  0.00  0.00    -0.115 C 
ATOM     15  H8  <0> d           0.462  -3.786  -0.742  0.00  0.00     0.067 H 
ATOM     16  H9  <0> d          -0.155  -2.378   0.324  0.00  0.00     0.067 H 
ENDBRANCH  13  14
BRANCH  13  17
ATOM     17  C8  <0> d           1.554  -2.314  -2.702  0.00  0.00    -0.051 C 
ATOM     18  H10 <0> d           1.879  -1.459  -3.294  0.00  0.00     0.033 H 
ATOM     19  H11 <0> d           2.421  -2.910  -2.417  0.00  0.00     0.033 H 
ATOM     20  H12 <0> d           0.871  -2.926  -3.292  0.00  0.00     0.033 H 
ENDBRANCH  13  17
ENDBRANCH   1  13
TORSDOF 7
