REMARK  7 active torsions:
REMARK  status: ('A' for Active; 'I' for Inactive)
REMARK    1  A    between atoms: C1_1  and  O1_2 
REMARK    2  A    between atoms: O1_2  and  C2_3 
REMARK    3  A    between atoms: C2_3  and  C3_5 
REMARK    4  A    between atoms: C3_5  and  C4_6 
REMARK    5  A    between atoms: C4_6  and  C5_8 
REMARK    6  A    between atoms: C4_6  and  O4_10 
REMARK    7  A    between atoms: C5_8  and  O3_9 
ROOT
ATOM      1  C3  <0> d           0.079   1.179   2.503  0.00  0.00     0.041 C 
ATOM      2  H5  <0> d           0.097   0.092   2.589  0.00  0.00     0.051 H 
ATOM      3  H6  <0> d           1.098   1.553   2.408  0.00  0.00     0.051 H 
ENDROOT
BRANCH   1   4
ATOM      4  C2  <0> d          -0.560   1.769   3.733  0.00  0.00     0.260 C 
ATOM      5  O2  <0> d          -1.559   2.441   3.632  0.00  0.00    -0.265 OA
BRANCH   4   6
ATOM      6  O1  <0> d          -0.020   1.548   4.942  0.00  0.00    -0.326 OA
BRANCH   6   7
ATOM      7  C1  <0> d          -0.689   2.148   6.083  0.00  0.00     0.013 C 
ATOM      8  H2  <0> d          -0.709   3.231   5.965  0.00  0.00     0.067 H 
ATOM      9  H3  <0> d          -1.710   1.770   6.145  0.00  0.00     0.067 H 
ATOM     10  H4  <0> d          -0.151   1.892   6.996  0.00  0.00     0.067 H 
ENDBRANCH   6   7
ENDBRANCH   4   6
ENDBRANCH   1   4
BRANCH   1  11
ATOM     11  C4  <0> d          -0.729   1.579   1.267  0.00  0.00     0.064 C 
ATOM     12  H1  <0> d          -0.822   2.665   1.230  0.00  0.00     0.086 H 
BRANCH  11  13
ATOM     13  C5  <0> d          -0.013   1.086   0.008  0.00  0.00     0.041 C 
ATOM     14  H7  <0> d           0.002  -0.004   0.002  0.00  0.00     0.077 H 
ATOM     15  H8  <0> d           1.010   1.463   0.000  0.00  0.00     0.077 H 
BRANCH  13  16
ATOM     16  O3  <0> d          -0.704   1.559  -1.150  0.00  0.00    -0.398 OA
ATOM     17  H9  <0> d          -0.304   1.284  -1.986  0.00  0.00     0.209 HD
ENDBRANCH  13  16
ENDBRANCH  11  13
BRANCH  11  18
ATOM     18  O4  <0> d          -2.030   0.991   1.336  0.00  0.00    -0.393 OA
ATOM     19  H10 <0> d          -2.023   0.025   1.372  0.00  0.00     0.210 HD
ENDBRANCH  11  18
ENDBRANCH   1  11
TORSDOF 7
