REMARK  2 active torsions:
REMARK  status: ('A' for Active; 'I' for Inactive)
REMARK    1  A    between atoms: C1_1  and  C2_2 
REMARK    2  A    between atoms: C2_2  and  C6_9 
ROOT
ATOM      1  C2  <0> d           2.257   0.167   0.795  0.00  0.00     0.157 C 
ATOM      2  O1  <0> d           0.971  -0.433   0.968  0.00  0.00    -0.349 OA
ATOM      3  C3  <0> d           0.002  -0.004   0.002  0.00  0.00     0.080 C 
ATOM      4  C4  <0> d          -0.018   1.512   0.010  0.00  0.00     0.173 C 
ATOM      5  O2  <0> d          -1.058   2.126   0.019  0.00  0.00    -0.293 OA
ATOM      6  C5  <0> d           1.319   2.224   0.001  0.00  0.00     0.080 C 
ATOM      7  O3  <0> d           2.163   1.583   0.968  0.00  0.00    -0.349 OA
ATOM      8  H4  <0> d          -0.896  -0.368   0.247  0.00  0.00     0.086 H 
ATOM      9  H5  <0> d           0.282  -0.364  -0.988  0.00  0.00     0.086 H 
ATOM     10  H6  <0> d           1.723   2.164  -0.911  0.00  0.00     0.086 H 
ATOM     11  H7  <0> d           1.182   3.272   0.269  0.00  0.00     0.086 H 
ENDROOT
BRANCH   1  12
ATOM     12  C1  <0> d           3.228  -0.407   1.829  0.00  0.00    -0.026 C 
ATOM     13  H1  <0> d           3.308  -1.486   1.692  0.00  0.00     0.035 H 
ATOM     14  H2  <0> d           4.209   0.049   1.698  0.00  0.00     0.035 H 
ATOM     15  H3  <0> d           2.859  -0.194   2.832  0.00  0.00     0.035 H 
ENDBRANCH   1  12
BRANCH   1  16
ATOM     16  C6  <0> d           2.774  -0.138  -0.612  0.00  0.00    -0.026 C 
ATOM     17  H8  <0> d           2.082   0.267  -1.350  0.00  0.00     0.035 H 
ATOM     18  H9  <0> d           3.755   0.319  -0.746  0.00  0.00     0.035 H 
ATOM     19  H10 <0> d           2.855  -1.217  -0.744  0.00  0.00     0.035 H 
ENDBRANCH   1  16
TORSDOF 2
