REMARK  5 active torsions:
REMARK  status: ('A' for Active; 'I' for Inactive)
REMARK    1  A    between atoms: C1_1  and  C2_2 
REMARK    2  A    between atoms: C2_2  and  C3_3 
REMARK    3  A    between atoms: C2_2  and  C4_4 
REMARK    4  A    between atoms: C7_7  and  O2_11 
REMARK    5  A    between atoms: C9_9  and  O1_10 
ROOT
ATOM      1  C4  <0> d           3.738   2.693  -0.012  0.00  0.00    -0.021 A 
ATOM      2  C5  <0> d           3.119   2.396   1.188  0.00  0.00    -0.071 A 
ATOM      3  C6  <0> d           1.862   1.822   1.196  0.00  0.00    -0.050 A 
ATOM      4  C7  <0> d           1.223   1.532  -0.001  0.00  0.00     0.068 A 
ATOM      5  C8  <0> d           1.841   1.830  -1.206  0.00  0.00    -0.019 A 
ATOM      6  C9  <0> d           3.100   2.411  -1.212  0.00  0.00     0.074 A 
ATOM      7  H8  <0> d           3.618   2.616   2.120  0.00  0.00     0.084 H 
ATOM      8  H9  <0> d           1.379   1.595   2.135  0.00  0.00     0.087 H 
ATOM      9  H10 <0> d           1.343   1.609  -2.138  0.00  0.00     0.092 H 
ENDROOT
BRANCH   1  10
ATOM     10  C2  <0> d           5.106   3.325  -0.017  0.00  0.00    -0.033 C 
ATOM     11  H4  <0> d           5.429   3.484  -1.046  0.00  0.00     0.046 H 
BRANCH  10  12
ATOM     12  C1  <0> d           5.051   4.668   0.713  0.00  0.00    -0.069 C 
ATOM     13  H1  <0> d           4.728   4.509   1.742  0.00  0.00     0.028 H 
ATOM     14  H2  <0> d           6.040   5.125   0.709  0.00  0.00     0.028 H 
ATOM     15  H3  <0> d           4.344   5.327   0.208  0.00  0.00     0.028 H 
ENDBRANCH  10  12
BRANCH  10  16
ATOM     16  C3  <0> d           6.098   2.400   0.691  0.00  0.00    -0.069 C 
ATOM     17  H5  <0> d           5.775   2.240   1.720  0.00  0.00     0.028 H 
ATOM     18  H6  <0> d           6.137   1.443   0.171  0.00  0.00     0.028 H 
ATOM     19  H7  <0> d           7.087   2.856   0.687  0.00  0.00     0.028 H 
ENDBRANCH  10  16
ENDBRANCH   1  10
BRANCH   6  20
ATOM     20  O1  <0> d           3.709   2.703  -2.391  0.00  0.00    -0.360 OA
ATOM     21  H11 <0> d           3.515   3.589  -2.724  0.00  0.00     0.217 HD
ENDBRANCH   6  20
BRANCH   4  22
ATOM     22  O2  <0> d          -0.011   0.963   0.007  0.00  0.00    -0.361 OA
ATOM     23  H12 <0> d           0.002  -0.004   0.002  0.00  0.00     0.217 HD
ENDBRANCH   4  22
TORSDOF 5
