REMARK  4 active torsions:
REMARK  status: ('A' for Active; 'I' for Inactive)
REMARK    1  A    between atoms: C1_1  and  O1_2 
REMARK    2  A    between atoms: O1_2  and  C2_3 
REMARK    3  A    between atoms: C2_3  and  C3_5 
REMARK    4  A    between atoms: C7_10  and  O3_12 
ROOT
ATOM      1  C3  <0> d           0.679  -2.115   1.088  0.00  0.00     0.055 C 
ATOM      2  H1  <0> d          -0.327  -2.537   1.101  0.00  0.00     0.059 H 
ATOM      3  C4  <0> d           1.485  -2.674  -0.111  0.00  0.00    -0.051 C 
ATOM      4  C5  <0> d           1.956  -4.055   0.408  0.00  0.00    -0.062 C 
ATOM      5  C6  <0> d           2.288  -3.808   1.894  0.00  0.00    -0.040 C 
ATOM      6  C7  <0> d           1.472  -2.575   2.329  0.00  0.00     0.048 C 
ATOM      7  H2  <0> d           2.143  -1.782   2.658  0.00  0.00     0.084 H 
ATOM      8  H6  <0> d           0.846  -2.787  -0.986  0.00  0.00     0.034 H 
ATOM      9  H7  <0> d           2.338  -2.033  -0.334  0.00  0.00     0.034 H 
ATOM     10  H8  <0> d           1.158  -4.791   0.312  0.00  0.00     0.033 H 
ATOM     11  H9  <0> d           2.845  -4.382  -0.132  0.00  0.00     0.033 H 
ATOM     12  H10 <0> d           1.998  -4.674   2.490  0.00  0.00     0.036 H 
ATOM     13  H11 <0> d           3.354  -3.613   2.012  0.00  0.00     0.036 H 
ENDROOT
BRANCH   1  14
ATOM     14  C2  <0> d           0.618  -0.611   1.029  0.00  0.00     0.265 C 
ATOM     15  O2  <0> d           1.124   0.049   1.905  0.00  0.00    -0.265 OA
BRANCH  14  16
ATOM     16  O1  <0> d           0.002  -0.004   0.002  0.00  0.00    -0.326 OA
BRANCH  16  17
ATOM     17  C1  <0> d          -0.017   1.425   0.010  0.00  0.00     0.013 C 
ATOM     18  H3  <0> d           1.005   1.802   0.002  0.00  0.00     0.067 H 
ATOM     19  H4  <0> d          -0.544   1.786  -0.873  0.00  0.00     0.067 H 
ATOM     20  H5  <0> d          -0.527   1.776   0.907  0.00  0.00     0.067 H 
ENDBRANCH  16  17
ENDBRANCH  14  16
ENDBRANCH   1  14
BRANCH   6  21
ATOM     21  O3  <0> d           0.573  -2.926   3.383  0.00  0.00    -0.395 OA
ATOM     22  H12 <0> d           1.012  -3.223   4.191  0.00  0.00     0.210 HD
ENDBRANCH   6  21
TORSDOF 4
