REMARK  0 active torsions:
REMARK  status: ('A' for Active; 'I' for Inactive)
ROOT
ATOM      1  C1  <0> d           0.478  -0.497  -1.357  0.00  0.00    -0.059 C 
ATOM      2  C2  <0> d           0.002  -0.004   0.002  0.00  0.00    -0.040 C 
ATOM      3  C3  <0> d          -0.019   1.528   0.010  0.00  0.00     0.048 C 
ATOM      4  C4  <0> d           1.459   1.941  -0.001  0.00  0.00    -0.040 C 
ATOM      5  C5  <0> d           2.381   0.951  -0.677  0.00  0.00    -0.059 C 
ATOM      6  C6  <0> d           1.804   0.073  -1.783  0.00  0.00    -0.053 C 
ATOM      7  C7  <0> d           1.729   0.859  -3.102  0.00  0.00    -0.053 C 
ATOM      8  C8  <0> d           1.193   2.219  -2.720  0.00  0.00     0.016 C 
ATOM      9  C9  <0> d          -0.227   2.050  -2.290  0.00  0.00     0.259 C 
ATOM     10  O1  <0> d          -1.033   1.879  -3.213  0.00  0.00    -0.265 OA
ATOM     11  O2  <0> d          -0.727   2.061  -1.124  0.00  0.00    -0.316 OA
ATOM     12  H1  <0> d           0.568  -1.590  -1.318  0.00  0.00     0.033 H 
ATOM     13  H2  <0> d          -0.276  -0.261  -2.111  0.00  0.00     0.033 H 
ATOM     14  H3  <0> d           0.673  -0.364   0.785  0.00  0.00     0.036 H 
ATOM     15  H4  <0> d          -1.005  -0.381   0.199  0.00  0.00     0.036 H 
ATOM     16  H5  <0> d          -0.488   1.873   0.960  0.00  0.00     0.084 H 
ATOM     17  H6  <0> d           1.570   2.935  -0.414  0.00  0.00     0.036 H 
ATOM     18  H7  <0> d           1.784   2.015   1.053  0.00  0.00     0.036 H 
ATOM     19  H8  <0> d           2.792   0.294   0.100  0.00  0.00     0.033 H 
ATOM     20  H9  <0> d           3.230   1.509  -1.089  0.00  0.00     0.033 H 
ATOM     21  H10 <0> d           2.498  -0.779  -1.937  0.00  0.00     0.040 H 
ATOM     22  H11 <0> d           2.722   0.951  -3.553  0.00  0.00     0.034 H 
ATOM     23  H12 <0> d           1.056   0.364  -3.809  0.00  0.00     0.034 H 
ATOM     24  H13 <0> d           1.816   2.709  -1.991  0.00  0.00     0.048 H 
ATOM     25  H14 <0> d           1.205   2.857  -3.627  0.00  0.00     0.048 H 
ENDROOT
TORSDOF 0
