REMARK  4 active torsions:
REMARK  status: ('A' for Active; 'I' for Inactive)
REMARK    1  A    between atoms: C1_1  and  S1_2 
REMARK    2  A    between atoms: S1_2  and  O2_4 
REMARK    3  A    between atoms: O2_4  and  C2_5 
REMARK    4  A    between atoms: C2_5  and  C3_6 
ROOT
ATOM      1  C3  <0> d          -3.147  -2.065   0.021  0.00  0.00    -0.090 C 
ATOM      2  C4  <0> d          -4.302  -2.274   0.031  0.00  0.00    -0.152 C 
ATOM      3  H6  <0> d          -5.335  -2.461   0.040  0.00  0.00     0.166 H 
ENDROOT
BRANCH   1   4
ATOM      4  C2  <0> d          -1.698  -1.803   0.009  0.00  0.00     0.089 C 
ATOM      5  H4  <0> d          -1.258  -2.239  -0.888  0.00  0.00     0.096 H 
ATOM      6  H5  <0> d          -1.241  -2.249   0.892  0.00  0.00     0.096 H 
BRANCH   4   7
ATOM      7  O2  <0> d          -1.470  -0.392   0.014  0.00  0.00    -0.284 OA
BRANCH   7   8
ATOM      8  S1  <0> d           0.002  -0.004   0.002  0.00  0.00     0.149 S 
ATOM      9  O1  <0> d           0.493  -0.478   1.249  0.00  0.00    -0.229 OA
BRANCH   8  10
ATOM     10  C1  <0> d          -0.022   1.810   0.012  0.00  0.00     0.015 C 
ATOM     11  H1  <0> d           1.000   2.187   0.004  0.00  0.00     0.048 H 
ATOM     12  H2  <0> d          -0.550   2.171  -0.871  0.00  0.00     0.048 H 
ATOM     13  H3  <0> d          -0.533   2.161   0.909  0.00  0.00     0.048 H 
ENDBRANCH   8  10
ENDBRANCH   7   8
ENDBRANCH   4   7
ENDBRANCH   1   4
TORSDOF 4
