REMARK  1 active torsions:
REMARK  status: ('A' for Active; 'I' for Inactive)
REMARK    1  A    between atoms: C1_1  and  C2_2 
ROOT
ATOM      1  C2  <0> d           0.002  -0.004   0.002  0.00  0.00     0.105 A 
ATOM      2  N1  <0> d           0.005  -0.626  -1.143  0.00  0.00    -0.216 NA
ATOM      3  C3  <0> d           0.024  -1.974  -1.210  0.00  0.00     0.162 A 
ATOM      4  C4  <0> d           0.039  -2.690  -0.022  0.00  0.00     0.062 A 
ATOM      5  C5  <0> d           0.036  -2.013   1.198  0.00  0.00     0.257 A 
ATOM      6  O1  <0> d           0.050  -2.625   2.254  0.00  0.00    -0.267 OA
ATOM      7  N2  <0> d           0.022  -0.660   1.180  0.00  0.00    -0.311 N 
ATOM      8  C6  <0> d           0.057  -4.143  -0.429  0.00  0.00    -0.002 A 
ATOM      9  C7  <0> d           0.048  -4.073  -1.944  0.00  0.00    -0.011 A 
ATOM     10  N3  <0> d           0.029  -2.827  -2.272  0.00  0.00    -0.245 NA
ATOM     11  H4  <0> d           0.962  -4.633  -0.071  0.00  0.00     0.048 H 
ATOM     12  H5  <0> d          -0.832  -4.657  -0.062  0.00  0.00     0.048 H 
ATOM     13  H6  <0> d           0.055  -4.912  -2.623  0.00  0.00     0.108 H 
ATOM     14  H7  <0> d           0.023  -0.163   2.013  0.00  0.00     0.170 HD
ENDROOT
BRANCH   1  15
ATOM     15  C1  <0> d          -0.018   1.503   0.010  0.00  0.00    -0.021 C 
ATOM     16  H1  <0> d           1.004   1.880   0.003  0.00  0.00     0.037 H 
ATOM     17  H2  <0> d          -0.545   1.864  -0.873  0.00  0.00     0.037 H 
ATOM     18  H3  <0> d          -0.529   1.854   0.907  0.00  0.00     0.037 H 
ENDBRANCH   1  15
TORSDOF 1
