REMARK  2 active torsions:
REMARK  status: ('A' for Active; 'I' for Inactive)
REMARK    1  A    between atoms: C1_1  and  N1_2 
REMARK    2  A    between atoms: N1_2  and  C2_3 
REMARK       I    between atoms: N1_2  and  C7_8 
REMARK       I    between atoms: C7_8  and  N2_10 
ROOT
ATOM      1  C2  <0> d           2.232   0.792   0.586  0.00  0.00     0.016 C 
ATOM      2  C3  <0> d           1.453   1.995  -0.001  0.00  0.00    -0.046 C 
ATOM      3  C4  <0> d          -0.019   1.534   0.011  0.00  0.00    -0.063 C 
ATOM      4  C5  <0> d           0.002  -0.004   0.002  0.00  0.00    -0.063 C 
ATOM      5  C6  <0> d           1.486  -0.425  -0.014  0.00  0.00    -0.046 C 
ATOM      6  H4  <0> d           2.169   0.786   1.675  0.00  0.00     0.072 H 
ATOM      7  H5  <0> d           1.781   2.201  -1.020  0.00  0.00     0.036 H 
ATOM      8  H6  <0> d           1.582   2.877   0.627  0.00  0.00     0.036 H 
ATOM      9  H7  <0> d          -0.533   1.906  -0.876  0.00  0.00     0.033 H 
ATOM     10  H8  <0> d          -0.516   1.896   0.910  0.00  0.00     0.033 H 
ATOM     11  H9  <0> d          -0.485  -0.389   0.898  0.00  0.00     0.033 H 
ATOM     12  H10 <0> d          -0.502  -0.379  -0.888  0.00  0.00     0.033 H 
ATOM     13  H11 <0> d           1.639  -1.309   0.604  0.00  0.00     0.036 H 
ATOM     14  H12 <0> d           1.818  -0.612  -1.036  0.00  0.00     0.036 H 
ENDROOT
BRANCH   1  15
ATOM     15  N1  <0> d           3.630   0.814   0.146  0.00  0.00    -0.334 N 
ATOM     16  C7  <0> d           3.921   0.893  -1.167  0.00  0.00     0.316 C 
ATOM     17  O1  <0> d           3.025   0.947  -1.987  0.00  0.00    -0.247 OA
ATOM     18  N2  <0> d           5.207   0.913  -1.572  0.00  0.00    -0.352 N 
ATOM     19  H13 <0> d           5.922   0.870  -0.918  0.00  0.00     0.160 HD
ATOM     20  H14 <0> d           5.416   0.970  -2.518  0.00  0.00     0.160 HD
BRANCH  15  21
ATOM     21  C1  <0> d           4.710   0.749   1.134  0.00  0.00    -0.014 C 
ATOM     22  H1  <0> d           4.974  -0.293   1.316  0.00  0.00     0.056 H 
ATOM     23  H2  <0> d           5.581   1.284   0.755  0.00  0.00     0.056 H 
ATOM     24  H3  <0> d           4.379   1.208   2.065  0.00  0.00     0.056 H 
ENDBRANCH  15  21
ENDBRANCH   1  15
TORSDOF 2
