REMARK  5 active torsions:
REMARK  status: ('A' for Active; 'I' for Inactive)
REMARK    1  A    between atoms: C1_1  and  C2_2 
REMARK    2  A    between atoms: C2_2  and  C3_3 
REMARK    3  A    between atoms: C4_4  and  C9_11 
REMARK    4  A    between atoms: C5_5  and  C8_10 
REMARK    5  A    between atoms: C6_6  and  C7_9 
ROOT
ATOM      1  C3  <0> d          -0.145   1.839   2.439  0.00  0.00     0.015 A 
ATOM      2  C4  <0> d          -0.718   1.572   1.248  0.00  0.00    -0.032 A 
ATOM      3  C5  <0> d          -2.096   1.836   1.374  0.00  0.00    -0.032 A 
ATOM      4  C6  <0> d          -2.315   2.246   2.640  0.00  0.00     0.012 A 
ATOM      5  N1  <0> d          -1.120   2.253   3.297  0.00  0.00    -0.362 N 
ATOM      6  H1  <0> d          -0.863   2.524   4.332  0.00  0.00     0.165 HD
ENDROOT
BRANCH   1   7
ATOM      7  C2  <0> d           1.320   1.703   2.765  0.00  0.00    -0.030 C 
ATOM      8  H5  <0> d           1.738   0.844   2.221  0.00  0.00     0.041 H 
ATOM      9  H6  <0> d           1.441   1.547   3.847  0.00  0.00     0.041 H 
BRANCH   7  10
ATOM     10  C1  <0> d           2.055   2.978   2.349  0.00  0.00    -0.071 C 
ATOM     11  H2  <0> d           3.125   2.879   2.587  0.00  0.00     0.028 H 
ATOM     12  H3  <0> d           1.637   3.838   2.893  0.00  0.00     0.028 H 
ATOM     13  H4  <0> d           1.934   3.135   1.267  0.00  0.00     0.028 H 
ENDBRANCH   7  10
ENDBRANCH   1   7
BRANCH   2  14
ATOM     14  C9  <0> d          -0.013   1.086   0.008  0.00  0.00    -0.049 C 
ATOM     15  H13 <0> d          -0.744   0.958  -0.804  0.00  0.00     0.033 H 
ATOM     16  H14 <0> d           0.475   0.122   0.217  0.00  0.00     0.033 H 
ATOM     17  H15 <0> d           0.746   1.822  -0.295  0.00  0.00     0.033 H 
ENDBRANCH   2  14
BRANCH   4  18
ATOM     18  C7  <0> d          -3.648   2.635   3.225  0.00  0.00    -0.037 C 
ATOM     19  H7  <0> d          -3.515   2.925   4.278  0.00  0.00     0.035 H 
ATOM     20  H8  <0> d          -4.338   1.781   3.164  0.00  0.00     0.035 H 
ATOM     21  H9  <0> d          -4.062   3.483   2.661  0.00  0.00     0.035 H 
ENDBRANCH   4  18
BRANCH   3  22
ATOM     22  C8  <0> d          -3.136   1.686   0.293  0.00  0.00    -0.049 C 
ATOM     23  H10 <0> d          -4.122   1.967   0.691  0.00  0.00     0.033 H 
ATOM     24  H11 <0> d          -3.162   0.640  -0.047  0.00  0.00     0.033 H 
ATOM     25  H12 <0> d          -2.882   2.341  -0.553  0.00  0.00     0.033 H 
ENDBRANCH   3  22
TORSDOF 5
