REMARK  3 active torsions:
REMARK  status: ('A' for Active; 'I' for Inactive)
REMARK    1  A    between atoms: C1_1  and  C2_2 
REMARK    2  A    between atoms: C5_6  and  N2_8 
REMARK       I    between atoms: N2_8  and  C7_9 
REMARK    3  A    between atoms: C7_9  and  C8_11 
ROOT
ATOM      1  C2  <0> d           2.374   1.365  -0.008  0.00  0.00    -0.057 A 
ATOM      2  C3  <0> d           1.160   2.039   0.007  0.00  0.00    -0.060 A 
ATOM      3  C4  <0> d          -0.015   1.315   0.013  0.00  0.00     0.005 A 
ATOM      4  N1  <0> d           0.002  -0.004   0.004  0.00  0.00    -0.243 NA
ATOM      5  C5  <0> d           1.138  -0.683  -0.011  0.00  0.00     0.130 A 
ATOM      6  C6  <0> d           2.360  -0.019  -0.017  0.00  0.00    -0.033 A 
ATOM      7  H4  <0> d           1.136   3.119   0.014  0.00  0.00     0.086 H 
ATOM      8  H5  <0> d          -0.962   1.836   0.020  0.00  0.00     0.114 H 
ATOM      9  H6  <0> d           3.285  -0.575  -0.029  0.00  0.00     0.090 H 
ENDROOT
BRANCH   5  10
ATOM     10  N2  <0> d           1.110  -2.077  -0.019  0.00  0.00    -0.312 N 
ATOM     11  C7  <0> d          -0.065  -2.727   0.090  0.00  0.00     0.219 C 
ATOM     12  O1  <0> d          -1.105  -2.103   0.103  0.00  0.00    -0.274 OA
ATOM     13  H7  <0> d           1.936  -2.578  -0.104  0.00  0.00     0.170 HD
BRANCH  11  14
ATOM     14  C8  <0> d          -0.087  -4.230   0.196  0.00  0.00    -0.002 C 
ATOM     15  H8  <0> d          -0.037  -4.521   1.246  0.00  0.00     0.040 H 
ATOM     16  H9  <0> d          -1.009  -4.612  -0.243  0.00  0.00     0.040 H 
ATOM     17  H10 <0> d           0.768  -4.645  -0.337  0.00  0.00     0.040 H 
ENDBRANCH  11  14
ENDBRANCH   5  10
BRANCH   1  18
ATOM     18  C1  <0> d           3.676   2.122  -0.014  0.00  0.00    -0.051 C 
ATOM     19  H1  <0> d           3.982   2.312  -1.043  0.00  0.00     0.033 H 
ATOM     20  H2  <0> d           3.548   3.071   0.507  0.00  0.00     0.033 H 
ATOM     21  H3  <0> d           4.442   1.532   0.489  0.00  0.00     0.033 H 
ENDBRANCH   1  18
TORSDOF 3
