REMARK  1 active torsions:
REMARK  status: ('A' for Active; 'I' for Inactive)
REMARK    1  A    between atoms: C1_1  and  N1_2 
ROOT
ATOM      1  N1  <0> d          -2.134   1.053  -1.207  0.00  0.00    -0.284 NA
ATOM      2  C2  <0> d          -0.758   1.557  -1.251  0.00  0.00    -0.002 C 
ATOM      3  C3  <0> d           0.005   1.040  -0.024  0.00  0.00     0.004 C 
ATOM      4  N2  <0> d          -0.669   1.578   1.170  0.00  0.00    -0.387 N 
ATOM      5  C4  <0> d          -2.075   1.591   1.171  0.00  0.00     0.049 A 
ATOM      6  C5  <0> d          -2.782   1.337  -0.002  0.00  0.00     0.037 A 
ATOM      7  C6  <0> d          -4.172   1.365   0.022  0.00  0.00    -0.060 A 
ATOM      8  C7  <0> d          -4.842   1.638   1.199  0.00  0.00    -0.081 A 
ATOM      9  C8  <0> d          -4.136   1.886   2.362  0.00  0.00    -0.081 A 
ATOM     10  C9  <0> d          -2.753   1.863   2.349  0.00  0.00    -0.056 A 
ATOM     11  H4  <0> d          -0.769   2.647  -1.241  0.00  0.00     0.058 H 
ATOM     12  H5  <0> d          -0.270   1.204  -2.159  0.00  0.00     0.058 H 
ATOM     13  H6  <0> d          -0.017  -0.049  -0.004  0.00  0.00     0.065 H 
ATOM     14  H7  <0> d           1.038   1.389  -0.056  0.00  0.00     0.065 H 
ATOM     15  H8  <0> d          -0.161   1.910   1.927  0.00  0.00     0.159 HD
ATOM     16  H9  <0> d          -4.730   1.172  -0.882  0.00  0.00     0.086 H 
ATOM     17  H10 <0> d          -5.921   1.658   1.211  0.00  0.00     0.083 H 
ATOM     18  H11 <0> d          -4.664   2.098   3.279  0.00  0.00     0.083 H 
ATOM     19  H12 <0> d          -2.201   2.056   3.257  0.00  0.00     0.087 H 
ENDROOT
BRANCH   1  20
ATOM     20  C1  <0> d          -2.912   1.545  -2.352  0.00  0.00    -0.029 C 
ATOM     21  H1  <0> d          -2.377   1.325  -3.276  0.00  0.00     0.048 H 
ATOM     22  H2  <0> d          -3.884   1.052  -2.369  0.00  0.00     0.048 H 
ATOM     23  H3  <0> d          -3.052   2.622  -2.260  0.00  0.00     0.048 H 
ENDBRANCH   1  20
TORSDOF 1
