REMARK  4 active torsions:
REMARK  status: ('A' for Active; 'I' for Inactive)
REMARK    1  A    between atoms: C1_1  and  C2_2 
REMARK    2  A    between atoms: N2_5  and  C5_7 
REMARK    3  A    between atoms: C5_7  and  C6_9 
REMARK    4  A    between atoms: C5_7  and  C7_10 
ROOT
ATOM      1  C2  <0> d           0.002  -0.004   0.002  0.00  0.00    -0.026 A 
ATOM      2  C3  <0> d           1.339  -0.416  -0.013  0.00  0.00     0.029 A 
ATOM      3  N1  <0> d           2.095   0.651  -0.015  0.00  0.00    -0.184 NA
ATOM      4  N2  <0> d           1.263   1.778  -0.001  0.00  0.00    -0.266 N 
ATOM      5  C4  <0> d          -0.016   1.349   0.009  0.00  0.00     0.007 A 
ATOM      6  H5  <0> d           1.686  -1.439  -0.022  0.00  0.00     0.118 H 
ATOM      7  H6  <0> d          -0.897   1.974   0.017  0.00  0.00     0.115 H 
ENDROOT
BRANCH   4   8
ATOM      8  C5  <0> d           1.704   3.175   0.003  0.00  0.00     0.114 C 
ATOM      9  H1  <0> d           2.697   3.243  -0.441  0.00  0.00     0.092 H 
BRANCH   8  10
ATOM     10  C6  <0> d           1.751   3.691   1.442  0.00  0.00    -0.046 C 
ATOM     11  H7  <0> d           0.758   3.623   1.886  0.00  0.00     0.031 H 
ATOM     12  H8  <0> d           2.450   3.088   2.022  0.00  0.00     0.031 H 
ATOM     13  H9  <0> d           2.079   4.731   1.445  0.00  0.00     0.031 H 
ENDBRANCH   8  10
BRANCH   8  14
ATOM     14  C7  <0> d           0.738   4.008  -0.798  0.00  0.00     0.198 C 
ATOM     15  O1  <0> d          -0.221   3.489  -1.319  0.00  0.00    -0.646 OA
ATOM     16  O2  <0> d           0.942   5.328  -0.934  0.00  0.00    -0.646 OA
ENDBRANCH   8  14
ENDBRANCH   4   8
BRANCH   1  17
ATOM     17  C1  <0> d          -1.204  -0.907   0.008  0.00  0.00    -0.049 C 
ATOM     18  H2  <0> d          -1.505  -1.119  -1.018  0.00  0.00     0.033 H 
ATOM     19  H3  <0> d          -0.957  -1.840   0.515  0.00  0.00     0.033 H 
ATOM     20  H4  <0> d          -2.024  -0.415   0.532  0.00  0.00     0.033 H 
ENDBRANCH   1  17
TORSDOF 4
