REMARK  3 active torsions:
REMARK  status: ('A' for Active; 'I' for Inactive)
REMARK    1  A    between atoms: C1_1  and  C2_2 
REMARK    2  A    between atoms: C4_7  and  C5_9 
REMARK    3  A    between atoms: C5_9  and  N2_10 
ROOT
ATOM      1  C2  <0> d           0.002  -0.004   0.002  0.00  0.00     0.115 A 
ATOM      2  H1  <0> d           0.520  -0.376  -0.882  0.00  0.00     0.091 H 
ATOM      3  C3  <0> d          -1.409  -0.560   0.070  0.00  0.00     0.289 A 
ATOM      4  O1  <0> d          -2.305  -0.404  -0.725  0.00  0.00    -0.262 OA
ATOM      5  O2  <0> d          -1.437  -1.266   1.217  0.00  0.00    -0.260 OA
ATOM      6  C4  <0> d          -0.252  -1.214   1.843  0.00  0.00     0.173 A 
ATOM      7  N1  <0> d           0.631  -0.522   1.229  0.00  0.00    -0.254 NA
ENDROOT
BRANCH   6   8
ATOM      8  C5  <0> d           0.016  -1.911   3.152  0.00  0.00     0.169 C 
ATOM      9  H5  <0> d          -0.666  -1.531   3.913  0.00  0.00     0.092 H 
ATOM     10  H6  <0> d          -0.136  -2.984   3.031  0.00  0.00     0.092 H 
BRANCH   8  11
ATOM     11  N2  <0> d           1.402  -1.657   3.567  0.00  0.00     0.085 N 
ATOM     12  H7  <0> d           1.587  -0.667   3.624  0.00  0.00     0.313 HD
ATOM     13  H8  <0> d           1.607  -2.114   4.443  0.00  0.00     0.313 HD
ENDBRANCH   8  11
ENDBRANCH   6   8
BRANCH   1  14
ATOM     14  C1  <0> d          -0.019   1.526   0.010  0.00  0.00    -0.047 C 
ATOM     15  H2  <0> d           1.004   1.903   0.003  0.00  0.00     0.031 H 
ATOM     16  H3  <0> d          -0.546   1.887  -0.873  0.00  0.00     0.031 H 
ATOM     17  H4  <0> d          -0.529   1.877   0.907  0.00  0.00     0.031 H 
ENDBRANCH   1  14
TORSDOF 3
