REMARK  4 active torsions:
REMARK  status: ('A' for Active; 'I' for Inactive)
REMARK    1  A    between atoms: C1_1  and  C2_2 
REMARK    2  A    between atoms: C2_2  and  O1_3 
REMARK    3  A    between atoms: O1_3  and  C3_4 
REMARK    4  A    between atoms: C3_4  and  C4_6 
ROOT
ATOM      1  C3  <0> d          -0.014   1.211   0.009  0.00  0.00     0.315 C 
ATOM      2  O2  <0> d           0.002  -0.004   0.002  0.00  0.00    -0.257 OA
ENDROOT
BRANCH   1   3
ATOM      3  O1  <0> d           1.143   1.901   0.001  0.00  0.00    -0.317 OA
BRANCH   3   4
ATOM      4  C2  <0> d           2.372   1.126  -0.015  0.00  0.00     0.026 C 
ATOM      5  H4  <0> d           2.397   0.497  -0.916  0.00  0.00     0.074 H 
ATOM      6  H5  <0> d           2.414   0.487   0.880  0.00  0.00     0.074 H 
BRANCH   4   7
ATOM      7  C1  <0> d           3.572   2.075  -0.021  0.00  0.00    -0.056 C 
ATOM      8  H1  <0> d           4.503   1.488  -0.033  0.00  0.00     0.030 H 
ATOM      9  H2  <0> d           3.547   2.704   0.881  0.00  0.00     0.030 H 
ATOM     10  H3  <0> d           3.530   2.714  -0.915  0.00  0.00     0.030 H 
ENDBRANCH   4   7
ENDBRANCH   3   4
ENDBRANCH   1   3
BRANCH   1  11
ATOM     11  C4  <0> d          -1.301   1.931   0.019  0.00  0.00     0.175 A 
ATOM     12  N3  <0> d          -1.454   3.266   0.026  0.00  0.00    -0.122 NA
ATOM     13  N2  <0> d          -2.709   3.555   0.033  0.00  0.00    -0.037 NA
ATOM     14  N1  <0> d          -3.438   2.357   0.031  0.00  0.00    -0.095 N 
ATOM     15  C5  <0> d          -2.539   1.353   0.016  0.00  0.00     0.068 A 
ATOM     16  O3  <0> d          -4.848   2.228   0.036  0.00  0.00    -0.061 OA
ATOM     17  H6  <0> d          -2.756   0.295   0.006  0.00  0.00     0.122 H 
ENDBRANCH   1  11
TORSDOF 4
