REMARK  3 active torsions:
REMARK  status: ('A' for Active; 'I' for Inactive)
REMARK    1  A    between atoms: C1_1  and  C2_2 
REMARK    2  A    between atoms: C2_2  and  C5_7 
REMARK    3  A    between atoms: C3_3  and  C4_4 
ROOT
ATOM      1  C2  <0> d           0.185  -0.108   0.052  0.00  0.00    -0.073 C 
ATOM      2  C3  <0> d          -0.213  -0.735   1.158  0.00  0.00    -0.007 C 
ATOM      3  H4  <0> d          -0.273  -0.197   2.092  0.00  0.00     0.094 H 
ENDROOT
BRANCH   1   4
ATOM      4  C1  <0> d           0.396   1.384   0.066  0.00  0.00    -0.054 C 
ATOM      5  H1  <0> d           1.427   1.603   0.342  0.00  0.00     0.033 H 
ATOM      6  H2  <0> d           0.191   1.790  -0.924  0.00  0.00     0.033 H 
ATOM      7  H3  <0> d          -0.279   1.839   0.792  0.00  0.00     0.033 H 
ENDBRANCH   1   4
BRANCH   1   8
ATOM      8  C5  <0> d           0.424  -0.890  -1.214  0.00  0.00    -0.032 A 
ATOM      9  C7  <0> d          -0.520  -0.636  -2.390  0.00  0.00    -0.058 A 
ATOM     10  C6  <0> d           0.919  -0.119  -2.438  0.00  0.00    -0.058 A 
ATOM     11  H8  <0> d          -0.771  -1.485  -3.026  0.00  0.00     0.034 H 
ATOM     12  H9  <0> d          -1.314   0.097  -2.249  0.00  0.00     0.034 H 
ATOM     13  H6  <0> d           1.071   0.955  -2.329  0.00  0.00     0.034 H 
ATOM     14  H7  <0> d           1.614  -0.627  -3.106  0.00  0.00     0.034 H 
ATOM     15  H5  <0> d           0.794  -1.907  -1.075  0.00  0.00     0.046 H 
ENDBRANCH   1   8
BRANCH   2  16
ATOM     16  C4  <0> d          -0.569  -2.158   1.107  0.00  0.00     0.198 C 
ATOM     17  O1  <0> d          -0.605  -2.741   0.032  0.00  0.00    -0.644 OA
ATOM     18  O2  <0> d          -0.832  -2.760   2.139  0.00  0.00    -0.644 OA
ENDBRANCH   2  16
TORSDOF 3
