REMARK  4 active torsions:
REMARK  status: ('A' for Active; 'I' for Inactive)
REMARK    1  A    between atoms: C2_2  and  C3_3 
REMARK    2  A    between atoms: C3_3  and  C4_4 
REMARK    3  A    between atoms: C4_4  and  C5_6 
REMARK    4  A    between atoms: C4_4  and  O1_10 
ROOT
ATOM      1  C3  <0> d          -0.013   1.086   0.008  0.00  0.00    -0.018 C 
ATOM      2  H5  <0> d           0.002  -0.004   0.002  0.00  0.00     0.043 H 
ATOM      3  H6  <0> d           1.010   1.463   0.000  0.00  0.00     0.043 H 
ENDROOT
BRANCH   1   4
ATOM      4  C2  <0> d          -0.742   1.585  -1.213  0.00  0.00    -0.109 C 
ATOM      5  C1  <0> d          -0.098   2.269  -2.126  0.00  0.00    -0.125 C 
ATOM      6  H2  <0> d          -0.620   2.627  -3.001  0.00  0.00     0.066 H 
ATOM      7  H3  <0> d           0.955   2.475  -2.004  0.00  0.00     0.066 H 
ATOM      8  H4  <0> d          -1.795   1.379  -1.335  0.00  0.00     0.075 H 
ENDBRANCH   1   4
BRANCH   1   9
ATOM      9  C4  <0> d          -0.729   1.579   1.267  0.00  0.00     0.132 C 
ATOM     10  H1  <0> d          -0.822   2.665   1.230  0.00  0.00     0.097 H 
BRANCH   9  11
ATOM     11  C5  <0> d           0.079   1.179   2.503  0.00  0.00     0.413 C 
ATOM     12  F1  <0> d           1.352   1.754   2.435  0.00  0.00    -0.168 F 
ATOM     13  F2  <0> d          -0.576   1.630   3.654  0.00  0.00    -0.168 F 
ATOM     14  F3  <0> d           0.198  -0.214   2.550  0.00  0.00    -0.168 F 
ENDBRANCH   9  11
BRANCH   9  15
ATOM     15  O1  <0> d          -2.030   0.991   1.336  0.00  0.00    -0.386 OA
ATOM     16  H7  <0> d          -2.023   0.025   1.372  0.00  0.00     0.210 HD
ENDBRANCH   9  15
ENDBRANCH   1   9
TORSDOF 4
