REMARK  2 active torsions:
REMARK  status: ('A' for Active; 'I' for Inactive)
REMARK    1  A    between atoms: C1_1  and  S1_2 
REMARK    2  A    between atoms: S1_2  and  C2_3 
ROOT
ATOM      1  C2  <0> d           0.045   1.043  -2.809  0.00  0.00     0.088 A 
ATOM      2  C3  <0> d          -0.211   1.218  -4.128  0.00  0.00     0.036 A 
ATOM      3  N1  <0> d           0.733   0.568  -4.826  0.00  0.00    -0.253 NA
ATOM      4  C4  <0> d           1.565  -0.003  -4.002  0.00  0.00     0.064 A 
ATOM      5  N2  <0> d           1.176   0.273  -2.726  0.00  0.00    -0.344 N 
ATOM      6  H4  <0> d          -1.033   1.782  -4.545  0.00  0.00     0.119 H 
ATOM      7  H5  <0> d           2.425  -0.594  -4.284  0.00  0.00     0.143 H 
ATOM      8  H6  <0> d           1.615  -0.021  -1.913  0.00  0.00     0.167 HD
ENDROOT
BRANCH   1   9
ATOM      9  S1  <0> d          -0.890   1.687  -1.462  0.00  0.00    -0.115 SA
BRANCH   9  10
ATOM     10  C1  <0> d          -0.013   1.086   0.008  0.00  0.00    -0.029 C 
ATOM     11  H1  <0> d           0.002  -0.004   0.002  0.00  0.00     0.042 H 
ATOM     12  H2  <0> d           1.010   1.463   0.000  0.00  0.00     0.042 H 
ATOM     13  H3  <0> d          -0.523   1.437   0.905  0.00  0.00     0.042 H 
ENDBRANCH   9  10
ENDBRANCH   1   9
TORSDOF 2
