REMARK  1 active torsions:
REMARK  status: ('A' for Active; 'I' for Inactive)
REMARK    1  A    between atoms: C4_4  and  C7_7 
ROOT
ATOM      1  C1  <0> d           6.258   0.671  -0.054  0.00  0.00    -0.083 A 
ATOM      2  C2  <0> d           5.562   1.867  -0.041  0.00  0.00    -0.082 A 
ATOM      3  C3  <0> d           4.182   1.865  -0.028  0.00  0.00    -0.069 A 
ATOM      4  C4  <0> d           3.490   0.656  -0.028  0.00  0.00     0.015 A 
ATOM      5  C5  <0> d           4.195  -0.545  -0.035  0.00  0.00    -0.069 A 
ATOM      6  C6  <0> d           5.575  -0.532  -0.054  0.00  0.00    -0.082 A 
ATOM      7  H1  <0> d           7.338   0.677  -0.065  0.00  0.00     0.083 H 
ATOM      8  H2  <0> d           6.100   2.803  -0.042  0.00  0.00     0.083 H 
ATOM      9  H3  <0> d           3.640   2.799  -0.018  0.00  0.00     0.085 H 
ATOM     10  H4  <0> d           3.663  -1.485  -0.031  0.00  0.00     0.085 H 
ATOM     11  H5  <0> d           6.123  -1.462  -0.064  0.00  0.00     0.083 H 
ENDROOT
BRANCH   4  12
ATOM     12  C7  <0> d           2.005   0.648  -0.014  0.00  0.00     0.206 A 
ATOM     13  N3  <0> d           1.199   1.718  -0.000  0.00  0.00    -0.106 NA
ATOM     14  N2  <0> d          -0.015   1.283   0.009  0.00  0.00    -0.021 NA
ATOM     15  N4  <0> d           0.003  -0.003   0.002  0.00  0.00    -0.021 NA
ATOM     16  N1  <0> d           1.224  -0.414  -0.012  0.00  0.00    -0.106 NA
ENDBRANCH   4  12
TORSDOF 1
