REMARK  2 active torsions:
REMARK  status: ('A' for Active; 'I' for Inactive)
REMARK    1  A    between atoms: C1_1  and  C2_2 
REMARK       I    between atoms: C2_2  and  N1_4 
REMARK    2  A    between atoms: N1_4  and  C3_5 
ROOT
ATOM      1  C3  <0> d          -1.256  -0.754   0.010  0.00  0.00     0.012 C 
ATOM      2  C4  <0> d          -1.745  -0.914   1.451  0.00  0.00    -0.046 C 
ATOM      3  C5  <0> d          -3.060  -1.697   1.459  0.00  0.00    -0.063 C 
ATOM      4  C6  <0> d          -2.835  -3.078   0.840  0.00  0.00    -0.065 C 
ATOM      5  C7  <0> d          -2.346  -2.918  -0.601  0.00  0.00    -0.063 C 
ATOM      6  C8  <0> d          -1.032  -2.135  -0.609  0.00  0.00    -0.046 C 
ATOM      7  H5  <0> d          -1.981  -0.177  -0.583  0.00  0.00     0.072 H 
ATOM      8  H6  <0> d          -0.990  -1.460   2.036  0.00  0.00     0.035 H 
ATOM      9  H7  <0> d          -1.907   0.078   1.896  0.00  0.00     0.035 H 
ATOM     10  H8  <0> d          -3.411  -1.813   2.495  0.00  0.00     0.033 H 
ATOM     11  H9  <0> d          -3.815  -1.152   0.875  0.00  0.00     0.033 H 
ATOM     12  H10 <0> d          -2.079  -3.624   1.425  0.00  0.00     0.033 H 
ATOM     13  H11 <0> d          -3.780  -3.641   0.846  0.00  0.00     0.033 H 
ATOM     14  H12 <0> d          -2.184  -3.910  -1.046  0.00  0.00     0.033 H 
ATOM     15  H13 <0> d          -3.101  -2.372  -1.186  0.00  0.00     0.033 H 
ATOM     16  H14 <0> d          -0.680  -2.019  -1.645  0.00  0.00     0.035 H 
ATOM     17  H15 <0> d          -0.276  -2.680  -0.025  0.00  0.00     0.035 H 
ENDROOT
BRANCH   1  18
ATOM     18  N1  <0> d           0.002  -0.004   0.002  0.00  0.00    -0.357 N 
ATOM     19  C2  <0> d          -0.016   1.344   0.009  0.00  0.00     0.213 C 
ATOM     20  O1  <0> d          -1.075   1.936   0.018  0.00  0.00    -0.274 OA
ATOM     21  H4  <0> d           0.962  -0.541  -0.010  0.00  0.00     0.162 HD
BRANCH  19  22
ATOM     22  C1  <0> d           1.278   2.115   0.001  0.00  0.00    -0.003 C 
ATOM     23  H1  <0> d           2.124   1.411  -0.006  0.00  0.00     0.040 H 
ATOM     24  H2  <0> d           1.335   2.747   0.900  0.00  0.00     0.040 H 
ATOM     25  H3  <0> d           1.322   2.749  -0.896  0.00  0.00     0.040 H 
ENDBRANCH  19  22
ENDBRANCH   1  18
TORSDOF 2
