REMARK  1 active torsions:
REMARK  status: ('A' for Active; 'I' for Inactive)
REMARK    1  A    between atoms: C4_5  and  C7_11 
ROOT
ATOM      1  C1  <0> d           0.025   1.594  -0.022  0.00  0.00    -0.045 C 
ATOM      2  C2  <0> d           1.482   2.062  -0.021  0.00  0.00    -0.057 C 
ATOM      3  C3  <0> d           2.235   1.377   1.122  0.00  0.00    -0.013 A 
ATOM      4  H1  <0> d           2.773   2.043   1.796  0.00  0.00     0.045 H 
ATOM      5  C4  <0> d           2.889   0.029   0.787  0.00  0.00     0.061 A 
ATOM      6  H2  <0> d           3.857  -0.188   1.239  0.00  0.00     0.061 H 
ATOM      7  C5  <0> d           1.680   0.083   1.707  0.00  0.00     0.056 A 
ATOM      8  H3  <0> d           1.874  -0.087   2.766  0.00  0.00     0.085 H 
ATOM      9  O1  <0> d           0.429  -0.412   1.252  0.00  0.00    -0.385 OA
ATOM     10  C6  <0> d           0.009   0.061  -0.025  0.00  0.00     0.020 C 
ATOM     11  H4  <0> d          -0.480   1.964   0.871  0.00  0.00     0.036 H 
ATOM     12  H5  <0> d          -0.481   1.968  -0.912  0.00  0.00     0.036 H 
ATOM     13  H6  <0> d           1.949   1.802  -0.971  0.00  0.00     0.033 H 
ATOM     14  H7  <0> d           1.517   3.143   0.117  0.00  0.00     0.033 H 
ATOM     15  H8  <0> d          -1.000  -0.294  -0.234  0.00  0.00     0.074 H 
ATOM     16  H9  <0> d           0.695  -0.310  -0.787  0.00  0.00     0.074 H 
ENDROOT
BRANCH   5  17
ATOM     17  C7  <0> d           2.682  -0.520  -0.601  0.00  0.00     0.180 C 
ATOM     18  O2  <0> d           2.951   0.165  -1.573  0.00  0.00    -0.648 OA
ATOM     19  O3  <0> d           2.246  -1.648  -0.752  0.00  0.00    -0.648 OA
ENDBRANCH   5  17
TORSDOF 1
