REMARK  5 active torsions:
REMARK  status: ('A' for Active; 'I' for Inactive)
REMARK    1  A    between atoms: C1_1  and  C2_2 
REMARK    2  A    between atoms: C2_2  and  O1_3 
REMARK    3  A    between atoms: O1_3  and  C3_4 
REMARK    4  A    between atoms: C4_6  and  C7_12 
REMARK    5  A    between atoms: C5_8  and  C6_11 
ROOT
ATOM      1  C3  <0> d           0.602  -0.604  -1.049  0.00  0.00     0.237 A 
ATOM      2  N1  <0> d           1.137   0.058  -2.020  0.00  0.00    -0.244 NA
ATOM      3  C4  <0> d           1.710  -0.868  -3.007  0.00  0.00     0.052 A 
ATOM      4  H1  <0> d           2.786  -0.721  -3.094  0.00  0.00     0.078 H 
ATOM      5  C5  <0> d           1.399  -2.264  -2.431  0.00  0.00     0.030 A 
ATOM      6  H2  <0> d           0.759  -2.827  -3.110  0.00  0.00     0.075 H 
ATOM      7  N2  <0> d           0.689  -1.961  -1.178  0.00  0.00    -0.349 N 
ATOM      8  H8  <0> d           0.341  -2.614  -0.550  0.00  0.00     0.163 HD
ENDROOT
BRANCH   1   9
ATOM      9  O1  <0> d           0.002  -0.004   0.002  0.00  0.00    -0.321 OA
BRANCH   9  10
ATOM     10  C2  <0> d          -0.017   1.425   0.010  0.00  0.00     0.026 C 
ATOM     11  H6  <0> d           1.005   1.802   0.002  0.00  0.00     0.074 H 
ATOM     12  H7  <0> d          -0.544   1.786  -0.873  0.00  0.00     0.074 H 
BRANCH  10  13
ATOM     13  C1  <0> d          -0.733   1.918   1.269  0.00  0.00    -0.056 C 
ATOM     14  H3  <0> d          -0.206   1.557   2.152  0.00  0.00     0.030 H 
ATOM     15  H4  <0> d          -0.748   3.008   1.275  0.00  0.00     0.030 H 
ATOM     16  H5  <0> d          -1.756   1.541   1.276  0.00  0.00     0.030 H 
ENDBRANCH  10  13
ENDBRANCH   9  10
ENDBRANCH   1   9
BRANCH   5  17
ATOM     17  C6  <0> d           2.693  -3.031  -2.147  0.00  0.00    -0.055 C 
ATOM     18  H9  <0> d           2.455  -3.978  -1.664  0.00  0.00     0.030 H 
ATOM     19  H10 <0> d           3.215  -3.222  -3.084  0.00  0.00     0.030 H 
ATOM     20  H11 <0> d           3.330  -2.438  -1.491  0.00  0.00     0.030 H 
ENDBRANCH   5  17
BRANCH   3  21
ATOM     21  C7  <0> d           1.030  -0.685  -4.366  0.00  0.00    -0.053 C 
ATOM     22  H12 <0> d          -0.049  -0.788  -4.249  0.00  0.00     0.030 H 
ATOM     23  H13 <0> d           1.260   0.306  -4.756  0.00  0.00     0.030 H 
ATOM     24  H14 <0> d           1.394  -1.443  -5.059  0.00  0.00     0.030 H 
ENDBRANCH   3  21
TORSDOF 5
