REMARK  4 active torsions:
REMARK  status: ('A' for Active; 'I' for Inactive)
REMARK    1  A    between atoms: C1_1  and  C2_2 
REMARK    2  A    between atoms: C2_2  and  O1_3 
REMARK    3  A    between atoms: O1_3  and  C3_4 
REMARK    4  A    between atoms: C7_8  and  C9_10 
ROOT
ATOM      1  C3  <0> d          -1.223   1.754   0.017  0.00  0.00     0.069 A 
ATOM      2  C4  <0> d          -0.013   1.076   0.008  0.00  0.00    -0.051 A 
ATOM      3  C5  <0> d           1.174   1.783   0.000  0.00  0.00    -0.080 A 
ATOM      4  C6  <0> d           1.156   3.166   0.008  0.00  0.00    -0.077 A 
ATOM      5  C7  <0> d          -0.049   3.844   0.023  0.00  0.00    -0.059 A 
ATOM      6  C8  <0> d          -1.239   3.141   0.030  0.00  0.00    -0.045 A 
ATOM      7  H6  <0> d           0.002  -0.004   0.002  0.00  0.00     0.087 H 
ATOM      8  H7  <0> d           2.116   1.256  -0.012  0.00  0.00     0.083 H 
ATOM      9  H8  <0> d           2.084   3.717   0.002  0.00  0.00     0.084 H 
ATOM     10  H9  <0> d          -2.179   3.671   0.042  0.00  0.00     0.088 H 
ENDROOT
BRANCH   1  11
ATOM     11  O1  <0> d          -2.392   1.060   0.019  0.00  0.00    -0.352 OA
BRANCH  11  12
ATOM     12  C2  <0> d          -2.300  -0.366   0.011  0.00  0.00     0.023 C 
ATOM     13  H4  <0> d          -1.768  -0.691  -0.883  0.00  0.00     0.074 H 
ATOM     14  H5  <0> d          -1.759  -0.700   0.896  0.00  0.00     0.074 H 
BRANCH  12  15
ATOM     15  C1  <0> d          -3.706  -0.968   0.014  0.00  0.00    -0.056 C 
ATOM     16  H1  <0> d          -4.238  -0.643   0.908  0.00  0.00     0.030 H 
ATOM     17  H2  <0> d          -4.247  -0.633  -0.872  0.00  0.00     0.030 H 
ATOM     18  H3  <0> d          -3.636  -2.056   0.008  0.00  0.00     0.030 H 
ENDBRANCH  12  15
ENDBRANCH  11  12
ENDBRANCH   1  11
BRANCH   5  19
ATOM     19  C9  <0> d          -0.065   5.351   0.032  0.00  0.00    -0.051 C 
ATOM     20  H10 <0> d          -0.079   5.720  -0.994  0.00  0.00     0.033 H 
ATOM     21  H11 <0> d          -0.954   5.702   0.556  0.00  0.00     0.033 H 
ATOM     22  H12 <0> d           0.826   5.721   0.539  0.00  0.00     0.033 H 
ENDBRANCH   5  19
TORSDOF 4
