REMARK  1 active torsions:
REMARK  status: ('A' for Active; 'I' for Inactive)
REMARK    1  A    between atoms: C2_3  and  N3_6 
ROOT
ATOM      1  C1  <0> d          -3.460   1.995   0.029  0.00  0.00     0.097 A 
ATOM      2  N1  <0> d          -2.452   1.155   0.020  0.00  0.00    -0.216 NA
ATOM      3  C2  <0> d          -1.218   1.641   0.017  0.00  0.00     0.183 A 
ATOM      4  S1  <0> d          -1.520   3.350   0.035  0.00  0.00     0.051 SA
ATOM      5  N2  <0> d          -3.231   3.286   0.035  0.00  0.00    -0.201 NA
ATOM      6  H1  <0> d          -4.474   1.625   0.032  0.00  0.00     0.147 H 
ENDROOT
BRANCH   3   7
ATOM      7  N3  <0> d          -0.011   0.966   0.007  0.00  0.00    -0.377 N 
ATOM      8  H2  <0> d           0.002  -0.004   0.002  0.00  0.00     0.158 HD
ATOM      9  H3  <0> d           0.822   1.462   0.002  0.00  0.00     0.158 HD
ENDBRANCH   3   7
TORSDOF 1
