REMARK  0 active torsions:
REMARK  status: ('A' for Active; 'I' for Inactive)
ROOT
ATOM      1  C1  <0> d           1.205   1.754  -0.000  0.00  0.00     0.110 A 
ATOM      2  N1  <0> d          -0.015   1.286   0.009  0.00  0.00    -0.141 NA
ATOM      3  N2  <0> d           0.002  -0.004   0.002  0.00  0.00    -0.121 NA
ATOM      4  C2  <0> d           1.233  -0.420  -0.013  0.00  0.00     0.210 A 
ATOM      5  N3  <0> d           2.043   0.688  -0.013  0.00  0.00    -0.220 N 
ATOM      6  N4  <0> d           3.435   0.624  -0.021  0.00  0.00    -0.260 N 
ATOM      7  C3  <0> d           4.088  -0.499  -0.350  0.00  0.00     0.246 C 
ATOM      8  O1  <0> d           5.292  -0.514  -0.201  0.00  0.00    -0.271 OA
ATOM      9  C4  <0> d           3.437  -1.737  -0.888  0.00  0.00     0.059 C 
ATOM     10  S1  <0> d           1.871  -2.062  -0.034  0.00  0.00    -0.079 SA
ATOM     11  H1  <0> d           1.493   2.796   0.001  0.00  0.00     0.149 H 
ATOM     12  H2  <0> d           4.028   1.510   0.248  0.00  0.00     0.190 HD
ATOM     13  H3  <0> d           3.236  -1.609  -1.962  0.00  0.00     0.064 H 
ATOM     14  H4  <0> d           4.107  -2.597  -0.741  0.00  0.00     0.064 H 
ENDROOT
TORSDOF 0
