REMARK  2 active torsions:
REMARK  status: ('A' for Active; 'I' for Inactive)
REMARK    1  A    between atoms: C6_7  and  C8_10 
REMARK    2  A    between atoms: C8_10  and  O1_11 
ROOT
ATOM      1  C1  <0> d          -0.013   1.076   0.008  0.00  0.00    -0.079 A 
ATOM      2  C2  <0> d          -1.236   1.766   0.018  0.00  0.00    -0.066 A 
ATOM      3  C3  <0> d          -1.260   3.115   0.030  0.00  0.00     0.004 A 
ATOM      4  N1  <0> d          -0.098   3.832   0.023  0.00  0.00    -0.245 N 
ATOM      5  C4  <0> d           1.111   3.184   0.008  0.00  0.00     0.067 A 
ATOM      6  C5  <0> d           1.154   1.776   0.001  0.00  0.00    -0.054 A 
ATOM      7  C6  <0> d           2.098   4.161   0.004  0.00  0.00     0.013 A 
ATOM      8  C7  <0> d           1.466   5.394   0.017  0.00  0.00     0.033 A 
ATOM      9  N2  <0> d           0.164   5.207   0.028  0.00  0.00    -0.179 NA
ATOM     10  H1  <0> d           0.002  -0.004   0.002  0.00  0.00     0.083 H 
ATOM     11  H2  <0> d          -2.164   1.213   0.019  0.00  0.00     0.085 H 
ATOM     12  H3  <0> d          -2.207   3.633   0.041  0.00  0.00     0.114 H 
ATOM     13  H4  <0> d           2.102   1.259  -0.011  0.00  0.00     0.087 H 
ATOM     14  H5  <0> d           1.962   6.353   0.017  0.00  0.00     0.118 H 
ENDROOT
BRANCH   7  15
ATOM     15  C8  <0> d           3.586   3.924  -0.011  0.00  0.00     0.044 C 
ATOM     16  H6  <0> d           3.875   3.349   0.881  0.00  0.00     0.081 H 
ATOM     17  H7  <0> d           3.858   3.359  -0.915  0.00  0.00     0.081 H 
BRANCH  15  18
ATOM     18  O1  <0> d           4.269   5.179  -0.011  0.00  0.00    -0.396 OA
ATOM     19  H8  <0> d           5.368   5.207  -0.021  0.00  0.00     0.209 HD
ENDBRANCH  15  18
ENDBRANCH   7  15
TORSDOF 2
