REMARK  1 active torsions:
REMARK  status: ('A' for Active; 'I' for Inactive)
REMARK    1  A    between atoms: C7_9  and  C8_11 
ROOT
ATOM      1  C8  <0> d           1.414   1.638  -0.003  0.00  0.00     0.018 C 
ATOM      2  C9  <0> d           2.116   1.207   1.218  0.00  0.00     0.059 C 
ATOM      3  N1  <0> d           2.658   0.874   2.159  0.00  0.00    -0.197 NA
ATOM      4  H12 <0> d           1.943   1.261  -0.878  0.00  0.00     0.055 H 
ATOM      5  H13 <0> d           1.383   2.727  -0.038  0.00  0.00     0.055 H 
ENDROOT
BRANCH   1   6
ATOM      6  C7  <0> d          -0.013   1.086   0.008  0.00  0.00    -0.039 C 
ATOM      7  C3  <0> d          -0.759   1.483  -1.302  0.00  0.00    -0.049 C 
ATOM      8  C2  <0> d          -0.489   3.042  -1.436  0.00  0.00    -0.061 C 
ATOM      9  H1  <0> d          -0.541   0.873  -2.179  0.00  0.00     0.040 H 
ATOM     10  C4  <0> d          -2.247   1.495  -0.793  0.00  0.00    -0.058 C 
ATOM     11  C1  <0> d          -1.322   3.678  -0.300  0.00  0.00    -0.061 C 
ATOM     12  H6  <0> d          -0.832   3.401  -2.406  0.00  0.00     0.033 H 
ATOM     13  H7  <0> d           0.570   3.264  -1.301  0.00  0.00     0.033 H 
ATOM     14  C5  <0> d          -2.003   2.470   0.413  0.00  0.00    -0.053 C 
ATOM     15  H4  <0> d          -2.076   4.350  -0.712  0.00  0.00     0.033 H 
ATOM     16  H5  <0> d          -0.675   4.214   0.394  0.00  0.00     0.033 H 
ATOM     17  H2  <0> d          -2.873   2.706   1.025  0.00  0.00     0.040 H 
ATOM     18  C6  <0> d          -0.835   1.739   1.143  0.00  0.00    -0.057 C 
ATOM     19  H10 <0> d          -1.225   0.976   1.816  0.00  0.00     0.034 H 
ATOM     20  H11 <0> d          -0.223   2.455   1.692  0.00  0.00     0.034 H 
ATOM     21  H8  <0> d          -2.573   0.509  -0.461  0.00  0.00     0.034 H 
ATOM     22  H9  <0> d          -2.928   1.919  -1.530  0.00  0.00     0.034 H 
ATOM     23  H3  <0> d           0.001   0.002   0.124  0.00  0.00     0.042 H 
ENDBRANCH   1   6
TORSDOF 1
