REMARK  1 active torsions:
REMARK  status: ('A' for Active; 'I' for Inactive)
REMARK    1  A    between atoms: C4_5  and  C6_8 
ROOT
ATOM      1  C1  <0> d          -3.704   1.903   0.030  0.00  0.00    -0.004 A 
ATOM      2  C2  <0> d          -3.668   3.291   0.037  0.00  0.00     0.136 A 
ATOM      3  C3  <0> d          -2.439   3.941   0.035  0.00  0.00     0.040 A 
ATOM      4  N1  <0> d          -1.316   3.260   0.026  0.00  0.00    -0.248 NA
ATOM      5  C4  <0> d          -1.304   1.932   0.019  0.00  0.00     0.171 A 
ATOM      6  C5  <0> d          -2.501   1.211   0.015  0.00  0.00     0.154 A 
ATOM      7  F1  <0> d          -2.488  -0.140   0.002  0.00  0.00    -0.203 F 
ATOM      8  F2  <0> d          -4.816   4.003   0.046  0.00  0.00    -0.204 F 
ATOM      9  H1  <0> d          -4.646   1.375   0.031  0.00  0.00     0.093 H 
ATOM     10  H2  <0> d          -2.408   5.020   0.041  0.00  0.00     0.119 H 
ENDROOT
BRANCH   5  11
ATOM     11  C6  <0> d          -0.014   1.210   0.009  0.00  0.00     0.232 C 
ATOM     12  O1  <0> d           0.002  -0.004   0.002  0.00  0.00    -0.643 OA
ATOM     13  O2  <0> d           1.143   1.900   0.001  0.00  0.00    -0.643 OA
ENDBRANCH   5  11
TORSDOF 1
