REMARK  2 active torsions:
REMARK  status: ('A' for Active; 'I' for Inactive)
REMARK    1  A    between atoms: C3_3  and  C6_7 
REMARK    2  A    between atoms: C6_7  and  C7_9 
ROOT
ATOM      1  C1  <0> d           2.337   1.415  -0.013  0.00  0.00    -0.065 A 
ATOM      2  C2  <0> d           2.413   0.034  -0.021  0.00  0.00    -0.067 A 
ATOM      3  C3  <0> d           1.216  -0.698  -0.013  0.00  0.00     0.028 A 
ATOM      4  C4  <0> d           0.002  -0.004   0.002  0.00  0.00     0.015 A 
ATOM      5  N1  <0> d          -0.016   1.312   0.009  0.00  0.00    -0.272 NA
ATOM      6  C5  <0> d           1.095   2.025   0.003  0.00  0.00     0.002 A 
ATOM      7  H1  <0> d           3.237   2.011  -0.018  0.00  0.00     0.085 H 
ATOM      8  H2  <0> d           3.369  -0.469  -0.033  0.00  0.00     0.085 H 
ATOM      9  H3  <0> d          -0.928  -0.552   0.008  0.00  0.00     0.116 H 
ATOM     10  H4  <0> d           1.034   3.103   0.009  0.00  0.00     0.114 H 
ENDROOT
BRANCH   3  11
ATOM     11  C6  <0> d           1.238  -2.169  -0.021  0.00  0.00     0.165 C 
ATOM     12  O1  <0> d           2.296  -2.760  -0.034  0.00  0.00    -0.292 OA
BRANCH  11  13
ATOM     13  C7  <0> d          -0.056  -2.942  -0.012  0.00  0.00     0.009 A 
ATOM     14  C9  <0> d          -0.038  -4.357  -0.593  0.00  0.00    -0.054 A 
ATOM     15  C8  <0> d          -0.150  -4.152   0.919  0.00  0.00    -0.054 A 
ATOM     16  H8  <0> d          -0.928  -4.696  -1.123  0.00  0.00     0.034 H 
ATOM     17  H9  <0> d           0.910  -4.729  -0.982  0.00  0.00     0.034 H 
ATOM     18  H6  <0> d           0.724  -4.390   1.525  0.00  0.00     0.034 H 
ATOM     19  H7  <0> d          -1.115  -4.356   1.384  0.00  0.00     0.034 H 
ATOM     20  H5  <0> d          -0.821  -2.313  -0.154  0.00  0.00     0.052 H 
ENDBRANCH  11  13
ENDBRANCH   3  11
TORSDOF 2
