REMARK  7 active torsions:
REMARK  status: ('A' for Active; 'I' for Inactive)
REMARK    1  A    between atoms: C1_1  and  C2_2 
REMARK    2  A    between atoms: C2_2  and  C3_3 
REMARK    3  A    between atoms: C3_3  and  C4_4 
REMARK    4  A    between atoms: C4_4  and  C5_5 
REMARK    5  A    between atoms: C5_5  and  C6_7 
REMARK    6  A    between atoms: C5_5  and  C8_9 
REMARK    7  A    between atoms: C6_7  and  C7_8 
REMARK       I    between atoms: C8_9  and  N1_11 
ROOT
ATOM      1  C5  <0> d          -0.735   1.461   1.123  0.00  0.00     0.023 C 
ATOM      2  H1  <0> d          -1.755   1.078   1.160  0.00  0.00     0.054 H 
ENDROOT
BRANCH   1   3
ATOM      3  C4  <0> d          -0.103   1.098  -0.222  0.00  0.00    -0.054 C 
ATOM      4  H9  <0> d           0.950   1.378  -0.217  0.00  0.00     0.034 H 
ATOM      5  H10 <0> d          -0.617   1.632  -1.022  0.00  0.00     0.034 H 
BRANCH   3   6
ATOM      6  C3  <0> d          -0.229  -0.409  -0.454  0.00  0.00    -0.065 C 
ATOM      7  H7  <0> d           0.360  -0.942   0.292  0.00  0.00     0.033 H 
ATOM      8  H8  <0> d          -1.275  -0.704  -0.369  0.00  0.00     0.033 H 
BRANCH   6   9
ATOM      9  C2  <0> d           0.287  -0.755  -1.853  0.00  0.00    -0.069 C 
ATOM     10  H5  <0> d          -0.302  -0.223  -2.599  0.00  0.00     0.032 H 
ATOM     11  H6  <0> d           1.333  -0.461  -1.937  0.00  0.00     0.032 H 
BRANCH   9  12
ATOM     12  C1  <0> d           0.161  -2.262  -2.084  0.00  0.00    -0.077 C 
ATOM     13  H2  <0> d           0.528  -2.509  -3.081  0.00  0.00     0.027 H 
ATOM     14  H3  <0> d           0.750  -2.795  -1.338  0.00  0.00     0.027 H 
ATOM     15  H4  <0> d          -0.885  -2.557  -2.000  0.00  0.00     0.027 H 
ENDBRANCH   9  12
ENDBRANCH   6   9
ENDBRANCH   3   6
ENDBRANCH   1   3
BRANCH   1  16
ATOM     16  C6  <0> d          -0.755   2.983   1.282  0.00  0.00    -0.057 C 
ATOM     17  H11 <0> d          -1.110   3.239   2.280  0.00  0.00     0.033 H 
ATOM     18  H12 <0> d           0.252   3.376   1.142  0.00  0.00     0.033 H 
BRANCH  16  19
ATOM     19  C7  <0> d          -1.691   3.593   0.236  0.00  0.00    -0.076 C 
ATOM     20  H13 <0> d          -1.777   4.666   0.407  0.00  0.00     0.027 H 
ATOM     21  H14 <0> d          -1.287   3.415  -0.760  0.00  0.00     0.027 H 
ATOM     22  H15 <0> d          -2.675   3.132   0.317  0.00  0.00     0.027 H 
ENDBRANCH  16  19
ENDBRANCH   1  16
BRANCH   1  23
ATOM     23  C8  <0> d           0.073   0.850   2.239  0.00  0.00     0.219 C 
ATOM     24  O1  <0> d           1.057   0.189   1.983  0.00  0.00    -0.273 OA
ATOM     25  N1  <0> d          -0.299   1.038   3.521  0.00  0.00    -0.370 N 
ATOM     26  H16 <0> d          -1.086   1.567   3.725  0.00  0.00     0.159 HD
ATOM     27  H17 <0> d           0.221   0.645   4.239  0.00  0.00     0.159 HD
ENDBRANCH   1  23
TORSDOF 7
