REMARK  1 active torsions:
REMARK  status: ('A' for Active; 'I' for Inactive)
REMARK    1  A    between atoms: C4_5  and  C7_11 
ROOT
ATOM      1  C1  <0> d           2.433   1.239  -1.275  0.00  0.00    -0.045 C 
ATOM      2  C2  <0> d           2.619   0.141  -0.224  0.00  0.00    -0.057 C 
ATOM      3  C3  <0> d           1.356  -0.689  -0.139  0.00  0.00    -0.013 A 
ATOM      4  H1  <0> d           1.900  -1.457   0.432  0.00  0.00     0.045 H 
ATOM      5  C4  <0> d           0.002  -0.004   0.002  0.00  0.00     0.061 A 
ATOM      6  H2  <0> d          -0.838  -0.065   0.710  0.00  0.00     0.061 H 
ATOM      7  C5  <0> d           0.384  -0.701  -1.312  0.00  0.00     0.056 A 
ATOM      8  H3  <0> d          -0.024  -1.470  -1.985  0.00  0.00     0.085 H 
ATOM      9  O1  <0> d           0.621   0.152  -2.430  0.00  0.00    -0.385 OA
ATOM     10  C6  <0> d           1.972   0.584  -2.583  0.00  0.00     0.020 C 
ATOM     11  H4  <0> d           3.385   1.764  -1.444  0.00  0.00     0.036 H 
ATOM     12  H5  <0> d           1.673   1.958  -0.937  0.00  0.00     0.036 H 
ATOM     13  H6  <0> d           3.464  -0.503  -0.512  0.00  0.00     0.033 H 
ATOM     14  H7  <0> d           2.825   0.600   0.754  0.00  0.00     0.033 H 
ATOM     15  H8  <0> d           2.039   1.315  -3.402  0.00  0.00     0.074 H 
ATOM     16  H9  <0> d           2.616  -0.279  -2.808  0.00  0.00     0.074 H 
ENDROOT
BRANCH   5  17
ATOM     17  C7  <0> d          -0.018   1.503   0.010  0.00  0.00     0.180 C 
ATOM     18  O2  <0> d           0.597   2.111   0.854  0.00  0.00    -0.648 OA
ATOM     19  O3  <0> d          -0.716   2.170  -0.923  0.00  0.00    -0.648 OA
ENDBRANCH   5  17
TORSDOF 1
