REMARK  1 active torsions:
REMARK  status: ('A' for Active; 'I' for Inactive)
REMARK    1  A    between atoms: C1_1  and  C2_2 
ROOT
ATOM      1  C2  <0> d           1.207  -0.686  -0.013  0.00  0.00    -0.060 A 
ATOM      2  C3  <0> d           0.002  -0.004   0.002  0.00  0.00    -0.075 A 
ATOM      3  C4  <0> d          -0.017   1.377   0.010  0.00  0.00    -0.054 A 
ATOM      4  C5  <0> d           1.177   2.083   0.002  0.00  0.00     0.063 A 
ATOM      5  C6  <0> d           2.392   1.396  -0.013  0.00  0.00     0.063 A 
ATOM      6  C7  <0> d           2.400   0.009  -0.020  0.00  0.00    -0.049 A 
ATOM      7  N1  <0> d           3.399   2.358  -0.016  0.00  0.00    -0.306 N 
ATOM      8  H1  <0> d           4.352   2.181  -0.026  0.00  0.00     0.170 HD
ATOM      9  C8  <0> d           2.823   3.575  -0.006  0.00  0.00     0.325 A 
ATOM     10  O1  <0> d           3.422   4.634  -0.007  0.00  0.00    -0.247 OA
ATOM     11  N2  <0> d           1.483   3.442   0.006  0.00  0.00    -0.307 N 
ATOM     12  H2  <0> d           0.841   4.169   0.016  0.00  0.00     0.170 HD
ATOM     13  H6  <0> d          -0.927  -0.554   0.008  0.00  0.00     0.084 H 
ATOM     14  H7  <0> d          -0.959   1.905   0.017  0.00  0.00     0.087 H 
ATOM     15  H8  <0> d           3.338  -0.526  -0.032  0.00  0.00     0.087 H 
ENDROOT
BRANCH   1  16
ATOM     16  C1  <0> d           1.216  -2.193  -0.021  0.00  0.00    -0.051 C 
ATOM     17  H3  <0> d           1.209  -2.551  -1.051  0.00  0.00     0.033 H 
ATOM     18  H4  <0> d           2.113  -2.553   0.482  0.00  0.00     0.033 H 
ATOM     19  H5  <0> d           0.333  -2.564   0.499  0.00  0.00     0.033 H 
ENDBRANCH   1  16
TORSDOF 1
