REMARK  3 active torsions:
REMARK  status: ('A' for Active; 'I' for Inactive)
REMARK    1  A    between atoms: C1_1  and  C2_2 
REMARK    2  A    between atoms: C2_2  and  C3_3 
REMARK    3  A    between atoms: C2_2  and  C4_4 
ROOT
ATOM      1  C4  <0> d          -1.231   3.129   0.030  0.00  0.00    -0.052 A 
ATOM      2  C5  <0> d          -1.223   1.742   0.017  0.00  0.00    -0.060 A 
ATOM      3  C6  <0> d          -0.013   1.076   0.008  0.00  0.00     0.002 A 
ATOM      4  N1  <0> d           1.125   1.743   0.001  0.00  0.00    -0.273 NA
ATOM      5  C7  <0> d           1.155   3.061   0.007  0.00  0.00     0.002 A 
ATOM      6  C8  <0> d          -0.015   3.796   0.022  0.00  0.00    -0.060 A 
ATOM      7  H8  <0> d          -2.151   1.190   0.018  0.00  0.00     0.086 H 
ATOM      8  H9  <0> d           0.002  -0.004   0.002  0.00  0.00     0.114 H 
ATOM      9  H10 <0> d           2.107   3.573   0.001  0.00  0.00     0.114 H 
ATOM     10  H11 <0> d           0.016   4.875   0.027  0.00  0.00     0.086 H 
ENDROOT
BRANCH   1  11
ATOM     11  C2  <0> d          -2.530   3.893   0.046  0.00  0.00    -0.035 C 
ATOM     12  H4  <0> d          -2.322   4.963   0.049  0.00  0.00     0.046 H 
BRANCH  11  13
ATOM     13  C1  <0> d          -3.346   3.536  -1.198  0.00  0.00    -0.069 C 
ATOM     14  H1  <0> d          -3.554   2.466  -1.201  0.00  0.00     0.028 H 
ATOM     15  H2  <0> d          -4.286   4.088  -1.187  0.00  0.00     0.028 H 
ATOM     16  H3  <0> d          -2.781   3.799  -2.092  0.00  0.00     0.028 H 
ENDBRANCH  11  13
BRANCH  11  17
ATOM     17  C3  <0> d          -3.324   3.524   1.301  0.00  0.00    -0.069 C 
ATOM     18  H5  <0> d          -3.531   2.454   1.297  0.00  0.00     0.028 H 
ATOM     19  H6  <0> d          -2.742   3.778   2.186  0.00  0.00     0.028 H 
ATOM     20  H7  <0> d          -4.263   4.077   1.312  0.00  0.00     0.028 H 
ENDBRANCH  11  17
ENDBRANCH   1  11
TORSDOF 3
