REMARK  1 active torsions:
REMARK  status: ('A' for Active; 'I' for Inactive)
REMARK    1  A    between atoms: C4_5  and  N2_8 
ROOT
ATOM      1  C1  <0> d          -2.453   3.702   0.034  0.00  0.00    -0.003 A 
ATOM      2  C2  <0> d          -3.621   2.946   0.036  0.00  0.00     0.137 A 
ATOM      3  C3  <0> d          -3.533   1.567   0.028  0.00  0.00     0.042 A 
ATOM      4  N1  <0> d          -2.360   0.963   0.018  0.00  0.00    -0.238 NA
ATOM      5  C4  <0> d          -1.227   1.646   0.017  0.00  0.00     0.160 A 
ATOM      6  C5  <0> d          -1.238   3.039   0.030  0.00  0.00     0.164 A 
ATOM      7  F1  <0> d          -0.079   3.733   0.034  0.00  0.00    -0.202 F 
ATOM      8  F2  <0> d          -4.827   3.554   0.045  0.00  0.00    -0.204 F 
ATOM      9  H1  <0> d          -2.494   4.781   0.041  0.00  0.00     0.093 H 
ATOM     10  H2  <0> d          -4.437   0.976   0.029  0.00  0.00     0.119 H 
ENDROOT
BRANCH   5  11
ATOM     11  N2  <0> d          -0.011   0.966   0.007  0.00  0.00    -0.382 N 
ATOM     12  H3  <0> d           0.002  -0.004   0.002  0.00  0.00     0.157 HD
ATOM     13  H4  <0> d           0.822   1.462   0.002  0.00  0.00     0.157 HD
ENDBRANCH   5  11
TORSDOF 1
