REMARK  0 active torsions:
REMARK  status: ('A' for Active; 'I' for Inactive)
ROOT
ATOM      1  C1  <0> d           1.303   4.414   0.013  0.00  0.00    -0.052 A 
ATOM      2  C2  <0> d           0.588   5.574   0.026  0.00  0.00    -0.051 A 
ATOM      3  C3  <0> d          -0.814   5.543   0.040  0.00  0.00     0.087 A 
ATOM      4  C4  <0> d          -1.484   4.314   0.039  0.00  0.00     0.093 A 
ATOM      5  C5  <0> d          -0.747   3.121   0.026  0.00  0.00     0.113 A 
ATOM      6  C6  <0> d           0.653   3.181   0.013  0.00  0.00     0.064 A 
ATOM      7  N1  <0> d           1.091   1.871   0.002  0.00  0.00    -0.349 N 
ATOM      8  H1  <0> d           2.042   1.564  -0.009  0.00  0.00     0.167 HD
ATOM      9  C7  <0> d          -0.013   1.076   0.008  0.00  0.00     0.065 A 
ATOM     10  N2  <0> d          -1.088   1.808   0.017  0.00  0.00    -0.239 NA
ATOM     11  N3  <0> d          -2.830   4.611   0.054  0.00  0.00    -0.347 N 
ATOM     12  H2  <0> d          -3.583   3.952   0.058  0.00  0.00     0.167 HD
ATOM     13  C8  <0> d          -2.946   5.966   0.062  0.00  0.00     0.065 A 
ATOM     14  N4  <0> d          -1.766   6.513   0.054  0.00  0.00    -0.242 NA
ATOM     15  H3  <0> d           2.382   4.450   0.004  0.00  0.00     0.087 H 
ATOM     16  H4  <0> d           1.105   6.522   0.026  0.00  0.00     0.087 H 
ATOM     17  H5  <0> d           0.002  -0.004   0.002  0.00  0.00     0.143 H 
ATOM     18  H6  <0> d          -3.880   6.509   0.075  0.00  0.00     0.143 H 
ENDROOT
TORSDOF 0
