REMARK  2 active torsions:
REMARK  status: ('A' for Active; 'I' for Inactive)
REMARK    1  A    between atoms: C3_3  and  N1_4 
REMARK       I    between atoms: N1_4  and  C4_5 
REMARK       I    between atoms: C4_5  and  N2_7 
REMARK    2  A    between atoms: N2_7  and  C5_8 
ROOT
ATOM      1  N1  <0> d          -0.391  -0.679  -1.237  0.00  0.00    -0.339 N 
ATOM      2  C4  <0> d          -0.877  -1.935  -1.196  0.00  0.00     0.316 C 
ATOM      3  O1  <0> d          -0.989  -2.509  -0.129  0.00  0.00    -0.247 OA
ATOM      4  N2  <0> d          -1.239  -2.557  -2.336  0.00  0.00    -0.339 N 
ATOM      5  H6  <0> d          -0.302  -0.222  -2.088  0.00  0.00     0.164 HD
ATOM      6  H7  <0> d          -1.149  -2.099  -3.186  0.00  0.00     0.164 HD
ENDROOT
BRANCH   1   7
ATOM      7  C3  <0> d           0.002  -0.004   0.002  0.00  0.00     0.014 A 
ATOM      8  C1  <0> d          -0.019   1.526   0.010  0.00  0.00    -0.044 A 
ATOM      9  C2  <0> d           1.317   0.779  -0.006  0.00  0.00    -0.044 A 
ATOM     10  H1  <0> d          -0.307   2.020   0.938  0.00  0.00     0.036 H 
ATOM     11  H2  <0> d          -0.325   2.030  -0.906  0.00  0.00     0.036 H 
ATOM     12  H3  <0> d           1.889   0.792  -0.934  0.00  0.00     0.036 H 
ATOM     13  H4  <0> d           1.906   0.782   0.910  0.00  0.00     0.036 H 
ATOM     14  H5  <0> d          -0.273  -0.516   0.924  0.00  0.00     0.072 H 
ENDBRANCH   1   7
BRANCH   4  15
ATOM     15  C5  <0> d          -1.767  -3.922  -2.290  0.00  0.00     0.014 A 
ATOM     16  C7  <0> d          -2.678  -4.366  -3.436  0.00  0.00    -0.044 A 
ATOM     17  C6  <0> d          -1.253  -4.913  -3.336  0.00  0.00    -0.044 A 
ATOM     18  H11 <0> d          -3.497  -5.044  -3.195  0.00  0.00     0.036 H 
ATOM     19  H12 <0> d          -2.885  -3.641  -4.224  0.00  0.00     0.036 H 
ATOM     20  H9  <0> d          -0.522  -4.550  -4.059  0.00  0.00     0.036 H 
ATOM     21  H10 <0> d          -1.134  -5.952  -3.029  0.00  0.00     0.036 H 
ATOM     22  H8  <0> d          -1.985  -4.309  -1.295  0.00  0.00     0.072 H 
ENDBRANCH   4  15
TORSDOF 2
