REMARK  0 active torsions:
REMARK  status: ('A' for Active; 'I' for Inactive)
ROOT
ATOM      1  C1  <0> d          -0.017   1.384   0.010  0.00  0.00    -0.018 A 
ATOM      2  C2  <0> d           1.300   1.822  -0.001  0.00  0.00     0.026 A 
ATOM      3  N1  <0> d           2.097   0.778  -0.014  0.00  0.00    -0.179 NA
ATOM      4  N2  <0> d           1.319  -0.385  -0.013  0.00  0.00    -0.227 N 
ATOM      5  C3  <0> d           0.002  -0.004   0.002  0.00  0.00     0.154 A 
ATOM      6  N3  <0> d          -0.974  -0.923   0.006  0.00  0.00    -0.203 NA
ATOM      7  C4  <0> d          -0.688  -2.209  -0.003  0.00  0.00     0.203 A 
ATOM      8  O1  <0> d          -1.687  -3.124   0.001  0.00  0.00    -0.170 OA
ATOM      9  C5  <0> d           0.655  -2.635  -0.018  0.00  0.00    -0.012 A 
ATOM     10  C6  <0> d           1.644  -1.712  -0.024  0.00  0.00     0.010 A 
ATOM     11  H1  <0> d          -0.897   2.010   0.025  0.00  0.00     0.091 H 
ATOM     12  H2  <0> d           1.617   2.854   0.002  0.00  0.00     0.117 H 
ATOM     13  H3  <0> d           0.893  -3.688  -0.026  0.00  0.00     0.092 H 
ATOM     14  H4  <0> d           2.679  -2.021  -0.035  0.00  0.00     0.115 H 
ENDROOT
TORSDOF 0
