REMARK  4 active torsions:
REMARK  status: ('A' for Active; 'I' for Inactive)
REMARK    1  A    between atoms: C1_1  and  C2_2 
REMARK    2  A    between atoms: C2_2  and  C3_4 
REMARK    3  A    between atoms: C2_2  and  C5_8 
REMARK    4  A    between atoms: C3_4  and  C4_5 
REMARK       I    between atoms: C4_5  and  N1_7 
REMARK       I    between atoms: C5_8  and  N2_10 
ROOT
ATOM      1  C2  <0> d          -2.657   3.621   0.034  0.00  0.00     0.028 C 
ATOM      2  H1  <0> d          -3.194   3.184  -0.807  0.00  0.00     0.054 H 
ENDROOT
BRANCH   1   3
ATOM      3  C1  <0> d          -3.329   3.200   1.343  0.00  0.00    -0.064 C 
ATOM      4  H2  <0> d          -4.362   3.549   1.349  0.00  0.00     0.028 H 
ATOM      5  H3  <0> d          -3.313   2.113   1.426  0.00  0.00     0.028 H 
ATOM      6  H4  <0> d          -2.792   3.637   2.184  0.00  0.00     0.028 H 
ENDBRANCH   1   3
BRANCH   1   7
ATOM      7  C3  <0> d          -1.208   3.131   0.025  0.00  0.00     0.020 C 
ATOM      8  H5  <0> d          -0.695   3.496   0.914  0.00  0.00     0.048 H 
ATOM      9  H6  <0> d          -0.703   3.506  -0.866  0.00  0.00     0.048 H 
BRANCH   7  10
ATOM     10  C4  <0> d          -1.187   1.624   0.017  0.00  0.00     0.216 C 
ATOM     11  O1  <0> d          -2.229   1.003   0.018  0.00  0.00    -0.274 OA
ATOM     12  N1  <0> d          -0.011   0.966   0.007  0.00  0.00    -0.370 N 
ATOM     13  H7  <0> d           0.002  -0.004   0.002  0.00  0.00     0.159 HD
ATOM     14  H8  <0> d           0.822   1.462   0.002  0.00  0.00     0.159 HD
ENDBRANCH   7  10
ENDBRANCH   1   7
BRANCH   1  15
ATOM     15  C5  <0> d          -2.680   5.123  -0.081  0.00  0.00     0.219 C 
ATOM     16  O2  <0> d          -1.639   5.741  -0.163  0.00  0.00    -0.273 OA
ATOM     17  N2  <0> d          -3.856   5.780  -0.093  0.00  0.00    -0.370 N 
ATOM     18  H9  <0> d          -4.689   5.287  -0.028  0.00  0.00     0.159 HD
ATOM     19  H10 <0> d          -3.871   6.747  -0.168  0.00  0.00     0.159 HD
ENDBRANCH   1  15
TORSDOF 4
