REMARK  2 active torsions:
REMARK  status: ('A' for Active; 'I' for Inactive)
REMARK    1  A    between atoms: C1_1  and  N1_2 
REMARK    2  A    between atoms: C5_7  and  O2_9 
ROOT
ATOM      1  N1  <0> d           1.137   3.129   0.007  0.00  0.00    -0.368 N 
ATOM      2  C2  <0> d           1.145   1.774   0.001  0.00  0.00    -0.017 A 
ATOM      3  C3  <0> d          -0.013   1.076   0.008  0.00  0.00    -0.017 A 
ATOM      4  C4  <0> d          -1.241   1.773   0.018  0.00  0.00     0.207 A 
ATOM      5  O1  <0> d          -2.303   1.166   0.019  0.00  0.00    -0.285 OA
ATOM      6  C5  <0> d          -1.219   3.191   0.030  0.00  0.00     0.131 A 
ATOM      7  C6  <0> d          -0.026   3.832   0.021  0.00  0.00     0.015 A 
ATOM      8  H4  <0> d           2.087   1.246  -0.011  0.00  0.00     0.111 H 
ATOM      9  H5  <0> d           0.002  -0.004   0.002  0.00  0.00     0.091 H 
ATOM     10  H6  <0> d           0.002   4.911   0.026  0.00  0.00     0.116 H 
ENDROOT
BRANCH   1  11
ATOM     11  C1  <0> d           2.411   3.853  -0.002  0.00  0.00    -0.015 C 
ATOM     12  H1  <0> d           2.717   4.037  -1.032  0.00  0.00     0.057 H 
ATOM     13  H2  <0> d           2.292   4.803   0.517  0.00  0.00     0.057 H 
ATOM     14  H3  <0> d           3.171   3.256   0.501  0.00  0.00     0.057 H 
ENDBRANCH   1  11
BRANCH   6  15
ATOM     15  O2  <0> d          -2.381   3.898   0.044  0.00  0.00    -0.356 OA
ATOM     16  H7  <0> d          -2.725   4.107  -0.835  0.00  0.00     0.218 HD
ENDBRANCH   6  15
TORSDOF 2
