REMARK  3 active torsions:
REMARK  status: ('A' for Active; 'I' for Inactive)
REMARK    1  A    between atoms: C1_1  and  C2_2 
REMARK    2  A    between atoms: C2_2  and  C4_4 
REMARK    3  A    between atoms: C6_7  and  N2_9 
ROOT
ATOM      1  C4  <0> d          -2.710   3.225   0.033  0.00  0.00     0.178 A 
ATOM      2  N1  <0> d          -3.372   2.095   0.030  0.00  0.00    -0.208 NA
ATOM      3  C5  <0> d          -2.479   1.071   0.020  0.00  0.00     0.190 A 
ATOM      4  C6  <0> d          -1.213   1.638   0.017  0.00  0.00     0.183 A 
ATOM      5  O1  <0> d          -1.387   2.972   0.031  0.00  0.00    -0.272 OA
ATOM      6  C7  <0> d          -2.787  -0.328   0.013  0.00  0.00     0.124 C 
ATOM      7  N3  <0> d          -3.031  -1.437   0.009  0.00  0.00    -0.190 NA
ENDROOT
BRANCH   4   8
ATOM      8  N2  <0> d          -0.011   0.966   0.007  0.00  0.00    -0.377 N 
ATOM      9  H6  <0> d           0.002  -0.004   0.002  0.00  0.00     0.158 HD
ATOM     10  H7  <0> d           0.822   1.462   0.002  0.00  0.00     0.158 HD
ENDBRANCH   4   8
BRANCH   1  11
ATOM     11  C2  <0> d          -3.318   4.564   0.044  0.00  0.00    -0.018 C 
ATOM     12  C3  <0> d          -2.545   5.646   0.047  0.00  0.00    -0.112 C 
ATOM     13  H4  <0> d          -2.991   6.629   0.055  0.00  0.00     0.067 H 
ATOM     14  H5  <0> d          -1.470   5.541   0.041  0.00  0.00     0.067 H 
BRANCH  11  15
ATOM     15  C1  <0> d          -4.818   4.710   0.051  0.00  0.00    -0.048 C 
ATOM     16  H1  <0> d          -5.175   4.739   1.081  0.00  0.00     0.033 H 
ATOM     17  H2  <0> d          -5.096   5.634  -0.456  0.00  0.00     0.033 H 
ATOM     18  H3  <0> d          -5.269   3.863  -0.465  0.00  0.00     0.033 H 
ENDBRANCH  11  15
ENDBRANCH   1  11
TORSDOF 3
