REMARK  6 active torsions:
REMARK  status: ('A' for Active; 'I' for Inactive)
REMARK    1  A    between atoms: C1_1  and  C2_2 
REMARK    2  A    between atoms: C2_2  and  C3_3 
REMARK       I    between atoms: C3_3  and  N1_5 
REMARK    3  A    between atoms: N1_5  and  C4_6 
REMARK    4  A    between atoms: N1_5  and  C5_7 
REMARK    5  A    between atoms: C5_7  and  C6_9 
REMARK    6  A    between atoms: C5_7  and  C7_10 
ROOT
ATOM      1  C3  <0> d          -1.412  -0.526   0.013  0.00  0.00     0.219 C 
ATOM      2  O1  <0> d          -2.344   0.250   0.026  0.00  0.00    -0.273 OA
ATOM      3  N1  <0> d          -1.640  -1.854   0.008  0.00  0.00    -0.352 N 
ENDROOT
BRANCH   3   4
ATOM      4  C4  <0> d          -0.514  -2.791  -0.008  0.00  0.00    -0.016 C 
ATOM      5  H7  <0> d          -0.225  -3.029   1.016  0.00  0.00     0.056 H 
ATOM      6  H8  <0> d          -0.808  -3.704  -0.524  0.00  0.00     0.056 H 
ATOM      7  H9  <0> d           0.330  -2.336  -0.527  0.00  0.00     0.056 H 
ENDBRANCH   3   4
BRANCH   3   8
ATOM      8  C5  <0> d          -3.014  -2.361   0.018  0.00  0.00     0.014 C 
ATOM      9  H1  <0> d          -3.711  -1.523   0.029  0.00  0.00     0.072 H 
BRANCH   8  10
ATOM     10  C6  <0> d          -3.231  -3.221   1.265  0.00  0.00    -0.057 C 
ATOM     11  H10 <0> d          -3.060  -2.618   2.157  0.00  0.00     0.030 H 
ATOM     12  H11 <0> d          -4.254  -3.598   1.273  0.00  0.00     0.030 H 
ATOM     13  H12 <0> d          -2.535  -4.059   1.254  0.00  0.00     0.030 H 
ENDBRANCH   8  10
BRANCH   8  14
ATOM     14  C7  <0> d          -3.255  -3.208  -1.233  0.00  0.00    -0.035 A 
ATOM     15  C9  <0> d          -4.641  -3.831  -1.409  0.00  0.00    -0.059 A 
ATOM     16  C8  <0> d          -4.216  -2.653  -2.287  0.00  0.00    -0.059 A 
ATOM     17  H16 <0> d          -4.696  -4.814  -1.876  0.00  0.00     0.033 H 
ATOM     18  H17 <0> d          -5.382  -3.638  -0.632  0.00  0.00     0.033 H 
ATOM     19  H14 <0> d          -4.676  -1.685  -2.089  0.00  0.00     0.033 H 
ATOM     20  H15 <0> d          -3.990  -2.861  -3.333  0.00  0.00     0.033 H 
ATOM     21  H13 <0> d          -2.397  -3.780  -1.586  0.00  0.00     0.043 H 
ENDBRANCH   8  14
ENDBRANCH   3   8
BRANCH   1  22
ATOM     22  C2  <0> d           0.002  -0.004   0.002  0.00  0.00     0.006 C 
ATOM     23  H5  <0> d           0.512  -0.356  -0.895  0.00  0.00     0.046 H 
ATOM     24  H6  <0> d           0.529  -0.365   0.885  0.00  0.00     0.046 H 
BRANCH  22  25
ATOM     25  C1  <0> d          -0.019   1.526   0.010  0.00  0.00    -0.068 C 
ATOM     26  H2  <0> d           1.004   1.903   0.003  0.00  0.00     0.028 H 
ATOM     27  H3  <0> d          -0.546   1.887  -0.873  0.00  0.00     0.028 H 
ATOM     28  H4  <0> d          -0.529   1.877   0.907  0.00  0.00     0.028 H 
ENDBRANCH  22  25
ENDBRANCH   1  22
TORSDOF 6
