REMARK  2 active torsions:
REMARK  status: ('A' for Active; 'I' for Inactive)
REMARK    1  A    between atoms: C4_5  and  C8_13 
REMARK    2  A    between atoms: C6_9  and  O1_12 
ROOT
ATOM      1  C1  <0> d           0.055   3.023  -1.421  0.00  0.00    -0.055 C 
ATOM      2  C2  <0> d           1.521   2.471  -1.321  0.00  0.00    -0.051 C 
ATOM      3  H1  <0> d           2.319   3.213  -1.364  0.00  0.00     0.040 H 
ATOM      4  C3  <0> d           1.429   1.644  -0.003  0.00  0.00    -0.049 C 
ATOM      5  C4  <0> d          -0.013   1.086   0.008  0.00  0.00     0.037 C 
ATOM      6  H2  <0> d           0.002  -0.004   0.002  0.00  0.00     0.057 H 
ATOM      7  C5  <0> d          -0.655   1.628  -1.305  0.00  0.00    -0.016 C 
ATOM      8  H3  <0> d          -1.745   1.639  -1.333  0.00  0.00     0.045 H 
ATOM      9  C6  <0> d           0.063   0.843  -2.445  0.00  0.00     0.040 C 
ATOM     10  H4  <0> d          -0.424   1.030  -3.401  0.00  0.00     0.083 H 
ATOM     11  C7  <0> d           1.526   1.400  -2.454  0.00  0.00    -0.037 C 
ATOM     12  H5  <0> d          -0.193   3.679  -0.587  0.00  0.00     0.034 H 
ATOM     13  H6  <0> d          -0.137   3.501  -2.382  0.00  0.00     0.034 H 
ATOM     14  H7  <0> d           1.593   2.288   0.862  0.00  0.00     0.034 H 
ATOM     15  H8  <0> d           2.152   0.829  -0.014  0.00  0.00     0.034 H 
ATOM     16  H9  <0> d           1.749   1.864  -3.415  0.00  0.00     0.037 H 
ATOM     17  H10 <0> d           2.250   0.616  -2.233  0.00  0.00     0.037 H 
ENDROOT
BRANCH   5  18
ATOM     18  C8  <0> d          -0.764   1.593   1.212  0.00  0.00     0.177 C 
ATOM     19  O2  <0> d          -1.739   2.292   1.065  0.00  0.00    -0.648 OA
ATOM     20  O3  <0> d          -0.350   1.269   2.447  0.00  0.00    -0.648 OA
ENDBRANCH   5  18
BRANCH   9  21
ATOM     21  O1  <0> d           0.071  -0.557  -2.157  0.00  0.00    -0.395 OA
ATOM     22  H11 <0> d           0.506  -1.095  -2.832  0.00  0.00     0.210 HD
ENDBRANCH   9  21
TORSDOF 2
