REMARK  2 active torsions:
REMARK  status: ('A' for Active; 'I' for Inactive)
REMARK    1  A    between atoms: C2_2  and  C6_7 
REMARK    2  A    between atoms: C4_4  and  C5_5 
ROOT
ATOM      1  C1  <0> d          -0.965   2.112  -1.038  0.00  0.00    -0.040 C 
ATOM      2  C2  <0> d          -0.018   1.503   0.010  0.00  0.00     0.032 C 
ATOM      3  C3  <0> d          -0.945   2.100   1.083  0.00  0.00    -0.040 C 
ATOM      4  C4  <0> d          -2.068   2.038   0.031  0.00  0.00     0.032 C 
ATOM      5  H1  <0> d          -0.702   3.130  -1.324  0.00  0.00     0.035 H 
ATOM      6  H2  <0> d          -1.143   1.462  -1.895  0.00  0.00     0.035 H 
ATOM      7  H3  <0> d           0.980   1.940   0.003  0.00  0.00     0.056 H 
ATOM      8  H4  <0> d          -1.106   1.442   1.936  0.00  0.00     0.035 H 
ATOM      9  H5  <0> d          -0.676   3.116   1.375  0.00  0.00     0.035 H 
ATOM     10  H6  <0> d          -2.615   1.095   0.029  0.00  0.00     0.056 H 
ENDROOT
BRANCH   2  11
ATOM     11  C6  <0> d           0.002  -0.004   0.002  0.00  0.00     0.177 C 
ATOM     12  O2  <0> d          -0.665  -0.613  -0.800  0.00  0.00    -0.648 OA
ATOM     13  O4  <0> d           0.762  -0.670   0.886  0.00  0.00    -0.648 OA
ENDBRANCH   2  11
BRANCH   4  14
ATOM     14  C5  <0> d          -2.976   3.240   0.045  0.00  0.00     0.177 C 
ATOM     15  O1  <0> d          -2.796   4.143  -0.738  0.00  0.00    -0.648 OA
ATOM     16  O3  <0> d          -3.985   3.310   0.928  0.00  0.00    -0.648 OA
ENDBRANCH   4  14
TORSDOF 2
