REMARK  1 active torsions:
REMARK  status: ('A' for Active; 'I' for Inactive)
REMARK    1  A    between atoms: C5_6  and  C6_7 
ROOT
ATOM      1  C1  <0> d           1.159   2.040   0.002  0.00  0.00    -0.049 A 
ATOM      2  C2  <0> d          -0.016   1.314   0.009  0.00  0.00     0.006 A 
ATOM      3  N1  <0> d           0.002  -0.004   0.002  0.00  0.00    -0.233 NA
ATOM      4  C3  <0> d           1.130  -0.689  -0.013  0.00  0.00     0.210 A 
ATOM      5  C4  <0> d           2.354  -0.040  -0.021  0.00  0.00    -0.011 A 
ATOM      6  C5  <0> d           2.380   1.357  -0.013  0.00  0.00     0.046 A 
ATOM      7  F1  <0> d           1.091  -2.039  -0.019  0.00  0.00    -0.184 F 
ATOM      8  H1  <0> d           1.135   3.120   0.008  0.00  0.00     0.087 H 
ATOM      9  H2  <0> d          -0.963   1.834   0.017  0.00  0.00     0.114 H 
ATOM     10  H3  <0> d           3.274  -0.606  -0.033  0.00  0.00     0.092 H 
ENDROOT
BRANCH   6  11
ATOM     11  C6  <0> d           3.664   2.095  -0.021  0.00  0.00     0.209 C 
ATOM     12  O1  <0> d           4.714   1.485  -0.034  0.00  0.00    -0.644 OA
ATOM     13  O2  <0> d           3.667   3.441  -0.014  0.00  0.00    -0.644 OA
ENDBRANCH   6  11
TORSDOF 1
