REMARK  3 active torsions:
REMARK  status: ('A' for Active; 'I' for Inactive)
REMARK    1  A    between atoms: C1_1  and  C2_2 
REMARK    2  A    between atoms: C2_2  and  O1_3 
REMARK    3  A    between atoms: O1_3  and  C3_4 
ROOT
ATOM      1  C3  <0> d           0.002  -0.004   0.002  0.00  0.00     0.109 A 
ATOM      2  C4  <0> d          -0.017   1.386   0.010  0.00  0.00    -0.046 A 
ATOM      3  C5  <0> d           1.193   2.062   0.002  0.00  0.00    -0.063 A 
ATOM      4  C6  <0> d           2.371   1.338  -0.013  0.00  0.00     0.004 A 
ATOM      5  N1  <0> d           2.355   0.019  -0.020  0.00  0.00    -0.246 NA
ATOM      6  C7  <0> d           1.225  -0.662  -0.013  0.00  0.00     0.159 A 
ATOM      7 Cl1  <0> d           1.268  -2.397  -0.022  0.00  0.00    -0.059 Cl
ATOM      8  H6  <0> d          -0.952   1.927   0.017  0.00  0.00     0.087 H 
ATOM      9  H7  <0> d           1.216   3.142   0.007  0.00  0.00     0.085 H 
ATOM     10  H8  <0> d           3.316   1.859  -0.020  0.00  0.00     0.114 H 
ENDROOT
BRANCH   1  11
ATOM     11  O1  <0> d          -1.160  -0.709   0.010  0.00  0.00    -0.348 OA
BRANCH  11  12
ATOM     12  C2  <0> d          -2.375   0.042   0.026  0.00  0.00     0.023 C 
ATOM     13  H4  <0> d          -2.423   0.681  -0.868  0.00  0.00     0.074 H 
ATOM     14  H5  <0> d          -2.405   0.671   0.928  0.00  0.00     0.074 H 
BRANCH  12  15
ATOM     15  C1  <0> d          -3.568  -0.916   0.033  0.00  0.00    -0.056 C 
ATOM     16  H1  <0> d          -4.503  -0.337   0.045  0.00  0.00     0.030 H 
ATOM     17  H2  <0> d          -3.520  -1.555   0.927  0.00  0.00     0.030 H 
ATOM     18  H3  <0> d          -3.538  -1.545  -0.869  0.00  0.00     0.030 H 
ENDBRANCH  12  15
ENDBRANCH  11  12
ENDBRANCH   1  11
TORSDOF 3
