REMARK  2 active torsions:
REMARK  status: ('A' for Active; 'I' for Inactive)
REMARK    1  A    between atoms: C1_1  and  C2_2 
REMARK    2  A    between atoms: C5_8  and  C6_10 
ROOT
ATOM      1  C2  <0> d           0.002  -0.004   0.002  0.00  0.00     0.038 A 
ATOM      2  C3  <0> d           0.006  -0.679  -1.181  0.00  0.00     0.006 A 
ATOM      3  C4  <0> d           0.025  -2.089  -1.153  0.00  0.00     0.248 A 
ATOM      4  O1  <0> d           0.030  -2.733  -2.189  0.00  0.00    -0.268 OA
ATOM      5  N1  <0> d           0.040  -2.712   0.045  0.00  0.00    -0.311 N 
ATOM      6  H1  <0> d           0.054  -3.680   0.089  0.00  0.00     0.170 HD
ATOM      7  C5  <0> d           0.035  -1.985   1.180  0.00  0.00     0.111 A 
ATOM      8  N2  <0> d           0.022  -0.679   1.154  0.00  0.00    -0.240 NA
ATOM      9  H5  <0> d          -0.007  -0.147  -2.120  0.00  0.00     0.095 H 
ENDROOT
BRANCH   7  10
ATOM     10  C6  <0> d           0.052  -2.695   2.509  0.00  0.00     0.004 A 
ATOM     11  C8  <0> d           0.621  -1.935   3.709  0.00  0.00    -0.054 A 
ATOM     12  C7  <0> d          -0.887  -2.174   3.600  0.00  0.00    -0.054 A 
ATOM     13  H9  <0> d           1.169  -2.510   4.455  0.00  0.00     0.034 H 
ATOM     14  H10 <0> d           0.983  -0.921   3.537  0.00  0.00     0.034 H 
ATOM     15  H7  <0> d          -1.516  -1.318   3.356  0.00  0.00     0.034 H 
ATOM     16  H8  <0> d          -1.330  -2.907   4.274  0.00  0.00     0.034 H 
ATOM     17  H6  <0> d           0.226  -3.770   2.466  0.00  0.00     0.052 H 
ENDBRANCH   7  10
BRANCH   1  18
ATOM     18  C1  <0> d          -0.018   1.503   0.010  0.00  0.00    -0.035 C 
ATOM     19  H2  <0> d           1.004   1.880   0.003  0.00  0.00     0.035 H 
ATOM     20  H3  <0> d          -0.545   1.864  -0.873  0.00  0.00     0.035 H 
ATOM     21  H4  <0> d          -0.529   1.854   0.907  0.00  0.00     0.035 H 
ENDBRANCH   1  18
TORSDOF 2
