REMARK  4 active torsions:
REMARK  status: ('A' for Active; 'I' for Inactive)
REMARK    1  A    between atoms: C1_1  and  C2_2 
REMARK    2  A    between atoms: C2_2  and  C3_3 
REMARK    3  A    between atoms: C4_4  and  C7_9 
REMARK    4  A    between atoms: C5_5  and  C6_8 
ROOT
ATOM      1  C3  <0> d          -1.412  -0.526   0.013  0.00  0.00     0.097 A 
ATOM      2  C4  <0> d          -2.182  -0.806  -1.095  0.00  0.00     0.099 A 
ATOM      3  C5  <0> d          -3.474  -1.284  -0.597  0.00  0.00     0.077 A 
ATOM      4  N1  <0> d          -3.414  -1.267   0.701  0.00  0.00    -0.132 NA
ATOM      5  O1  <0> d          -2.139  -0.804   1.097  0.00  0.00    -0.216 OA
ENDROOT
BRANCH   1   6
ATOM      6  C2  <0> d           0.002  -0.004   0.002  0.00  0.00    -0.021 C 
ATOM      7  H4  <0> d           0.512  -0.356  -0.895  0.00  0.00     0.042 H 
ATOM      8  H5  <0> d           0.529  -0.365   0.885  0.00  0.00     0.042 H 
BRANCH   6   9
ATOM      9  C1  <0> d          -0.019   1.526   0.010  0.00  0.00    -0.071 C 
ATOM     10  H1  <0> d           1.004   1.903   0.003  0.00  0.00     0.028 H 
ATOM     11  H2  <0> d          -0.546   1.887  -0.873  0.00  0.00     0.028 H 
ATOM     12  H3  <0> d          -0.529   1.877   0.907  0.00  0.00     0.028 H 
ENDBRANCH   6   9
ENDBRANCH   1   6
BRANCH   2  13
ATOM     13  C7  <0> d          -1.785  -0.654  -2.502  0.00  0.00     0.214 C 
ATOM     14  O2  <0> d          -0.667  -0.240  -2.781  0.00  0.00    -0.644 OA
ATOM     15  O3  <0> d          -2.571  -0.941  -3.394  0.00  0.00    -0.644 OA
ENDBRANCH   2  13
BRANCH   3  16
ATOM     16  C6  <0> d          -4.651  -1.715  -1.432  0.00  0.00    -0.032 C 
ATOM     17  H6  <0> d          -4.580  -2.783  -1.638  0.00  0.00     0.035 H 
ATOM     18  H7  <0> d          -5.575  -1.510  -0.891  0.00  0.00     0.035 H 
ATOM     19  H8  <0> d          -4.651  -1.163  -2.373  0.00  0.00     0.035 H 
ENDBRANCH   3  16
TORSDOF 4
