REMARK  1 active torsions:
REMARK  status: ('A' for Active; 'I' for Inactive)
REMARK    1  A    between atoms: C6_6  and  O1_7 
ROOT
ATOM      1  C1  <0> d          -0.017   1.384   0.010  0.00  0.00    -0.050 A 
ATOM      2  C2  <0> d           1.171   2.095   0.002  0.00  0.00    -0.072 A 
ATOM      3  C3  <0> d           2.373   1.427  -0.013  0.00  0.00    -0.025 A 
ATOM      4  C4  <0> d           2.407   0.030  -0.021  0.00  0.00     0.042 A 
ATOM      5  C5  <0> d           1.208  -0.684  -0.014  0.00  0.00    -0.035 A 
ATOM      6  C6  <0> d           0.002  -0.004   0.002  0.00  0.00     0.066 A 
ATOM      7  C7  <0> d           3.819  -0.399  -0.036  0.00  0.00     0.252 A 
ATOM      8  O2  <0> d           4.193  -1.555  -0.046  0.00  0.00    -0.268 OA
ATOM      9  N1  <0> d           4.631   0.672  -0.038  0.00  0.00    -0.353 N 
ATOM     10  C8  <0> d           3.810   1.888  -0.024  0.00  0.00     0.020 A 
ATOM     11  H1  <0> d          -0.960   1.910   0.026  0.00  0.00     0.087 H 
ATOM     12  H2  <0> d           1.153   3.175   0.008  0.00  0.00     0.084 H 
ATOM     13  H3  <0> d           1.221  -1.764  -0.020  0.00  0.00     0.089 H 
ATOM     14  H5  <0> d           5.601   0.645  -0.046  0.00  0.00     0.163 HD
ATOM     15  H6  <0> d           4.006   2.482  -0.916  0.00  0.00     0.071 H 
ATOM     16  H7  <0> d           4.022   2.473   0.871  0.00  0.00     0.071 H 
ENDROOT
BRANCH   6  17
ATOM     17  O1  <0> d          -1.167  -0.698   0.009  0.00  0.00    -0.361 OA
ATOM     18  H4  <0> d          -1.513  -0.893  -0.872  0.00  0.00     0.217 HD
ENDBRANCH   6  17
TORSDOF 1
