REMARK  3 active torsions:
REMARK  status: ('A' for Active; 'I' for Inactive)
REMARK    1  A    between atoms: C1_1  and  C2_2 
REMARK    2  A    between atoms: C2_2  and  N1_3 
REMARK    3  A    between atoms: N1_3  and  C3_4 
ROOT
ATOM      1  C3  <0> d           0.832  -1.847  -1.433  0.00  0.00     0.027 A 
ATOM      2  C4  <0> d           0.321  -2.763  -0.523  0.00  0.00    -0.058 A 
ATOM      3  C5  <0> d           0.464  -4.117  -0.753  0.00  0.00    -0.081 A 
ATOM      4  C6  <0> d           1.117  -4.561  -1.889  0.00  0.00    -0.083 A 
ATOM      5  C7  <0> d           1.627  -3.652  -2.797  0.00  0.00    -0.081 A 
ATOM      6  C8  <0> d           1.482  -2.296  -2.575  0.00  0.00    -0.058 A 
ATOM      7  H7  <0> d          -0.189  -2.417   0.365  0.00  0.00     0.086 H 
ATOM      8  H8  <0> d           0.067  -4.830  -0.046  0.00  0.00     0.083 H 
ATOM      9  H9  <0> d           1.229  -5.620  -2.066  0.00  0.00     0.083 H 
ATOM     10  H10 <0> d           2.136  -4.002  -3.683  0.00  0.00     0.083 H 
ATOM     11  H11 <0> d           1.877  -1.587  -3.288  0.00  0.00     0.086 H 
ENDROOT
BRANCH   1  12
ATOM     12  N1  <0> d           0.688  -0.476  -1.203  0.00  0.00    -0.390 N 
ATOM     13  H6  <0> d           1.042   0.162  -1.842  0.00  0.00     0.159 HD
BRANCH  12  14
ATOM     14  C2  <0> d           0.002  -0.004   0.002  0.00  0.00    -0.011 C 
ATOM     15  H4  <0> d           0.529  -0.365   0.885  0.00  0.00     0.063 H 
ATOM     16  H5  <0> d          -1.020  -0.381   0.010  0.00  0.00     0.063 H 
BRANCH  14  17
ATOM     17  C1  <0> d          -0.019   1.526   0.010  0.00  0.00    -0.061 C 
ATOM     18  H1  <0> d           1.004   1.903   0.003  0.00  0.00     0.029 H 
ATOM     19  H2  <0> d          -0.546   1.887  -0.873  0.00  0.00     0.029 H 
ATOM     20  H3  <0> d          -0.529   1.877   0.907  0.00  0.00     0.029 H 
ENDBRANCH  14  17
ENDBRANCH  12  14
ENDBRANCH   1  12
TORSDOF 3
