REMARK  2 active torsions:
REMARK  status: ('A' for Active; 'I' for Inactive)
REMARK    1  A    between atoms: C1_1  and  C2_2 
REMARK    2  A    between atoms: C2_2  and  C9_12 
ROOT
ATOM      1  C2  <0> d           1.183   2.143   0.002  0.00  0.00     0.017 C 
ATOM      2  C3  <0> d           0.651   3.607   0.073  0.00  0.00    -0.040 C 
ATOM      3  H1  <0> d           1.351   4.354   0.447  0.00  0.00     0.041 H 
ATOM      4  C4  <0> d           0.040   3.864  -1.339  0.00  0.00    -0.060 C 
ATOM      5  C5  <0> d          -1.208   2.963  -1.392  0.00  0.00    -0.055 C 
ATOM      6  C6  <0> d          -1.245   2.258  -0.002  0.00  0.00     0.005 C 
ATOM      7  H2  <0> d          -2.163   1.897   0.164  0.00  0.00     0.051 H 
ATOM      8  C7  <0> d          -0.654   3.389   0.918  0.00  0.00    -0.051 C 
ATOM      9  C8  <0> d          -0.066   1.275  -0.037  0.00  0.00     0.139 C 
ATOM     10  O1  <0> d          -0.120   0.070  -0.089  0.00  0.00    -0.297 OA
ATOM     11  H6  <0> d          -0.239   4.912  -1.448  0.00  0.00     0.033 H 
ATOM     12  H7  <0> d           0.746   3.574  -2.117  0.00  0.00     0.033 H 
ATOM     13  H8  <0> d          -1.114   2.227  -2.190  0.00  0.00     0.034 H 
ATOM     14  H9  <0> d          -2.104   3.566  -1.537  0.00  0.00     0.034 H 
ATOM     15  H10 <0> d          -0.436   3.031   1.924  0.00  0.00     0.034 H 
ATOM     16  H11 <0> d          -1.286   4.277   0.933  0.00  0.00     0.034 H 
ENDROOT
BRANCH   1  17
ATOM     17  C1  <0> d           2.018   1.819   1.243  0.00  0.00    -0.062 C 
ATOM     18  H3  <0> d           2.336   0.777   1.205  0.00  0.00     0.029 H 
ATOM     19  H4  <0> d           2.894   2.465   1.270  0.00  0.00     0.029 H 
ATOM     20  H5  <0> d           1.417   1.983   2.138  0.00  0.00     0.029 H 
ENDBRANCH   1  17
BRANCH   1  21
ATOM     21  C9  <0> d           2.013   1.938  -1.267  0.00  0.00    -0.062 C 
ATOM     22  H12 <0> d           1.374   2.057  -2.142  0.00  0.00     0.029 H 
ATOM     23  H13 <0> d           2.814   2.677  -1.300  0.00  0.00     0.029 H 
ATOM     24  H14 <0> d           2.442   0.936  -1.263  0.00  0.00     0.029 H 
ENDBRANCH   1  21
TORSDOF 2
