REMARK  2 active torsions:
REMARK  status: ('A' for Active; 'I' for Inactive)
REMARK    1  A    between atoms: C3_4  and  C4_6 
REMARK    2  A    between atoms: C4_6  and  C5_8 
ROOT
ATOM      1  C5  <0> d           0.346  -3.057  -0.018  0.00  0.00     0.076 C 
ATOM      2  C6  <0> d           0.900  -4.421  -0.031  0.00  0.00     0.067 C 
ATOM      3  N2  <0> d           1.328  -5.473  -0.041  0.00  0.00    -0.197 NA
ATOM      4  H3  <0> d          -0.258  -2.919   0.879  0.00  0.00     0.067 H 
ATOM      5  H4  <0> d          -0.275  -2.909  -0.901  0.00  0.00     0.067 H 
ENDROOT
BRANCH   1   6
ATOM      6  C4  <0> d           1.474  -2.057  -0.024  0.00  0.00     0.197 C 
ATOM      7  O1  <0> d           2.625  -2.440  -0.037  0.00  0.00    -0.289 OA
BRANCH   6   8
ATOM      8  C3  <0> d           1.180  -0.623  -0.013  0.00  0.00     0.143 A 
ATOM      9  S1  <0> d           2.306   0.762  -0.016  0.00  0.00    -0.077 SA
ATOM     10  C2  <0> d           1.158   1.994   0.002  0.00  0.00    -0.026 A 
ATOM     11  C1  <0> d          -0.016   1.301   0.009  0.00  0.00     0.010 A 
ATOM     12  H2  <0> d           1.313   3.063   0.006  0.00  0.00     0.097 H 
ATOM     13  N1  <0> d           0.002  -0.004   0.002  0.00  0.00    -0.249 NA
ATOM     14  H1  <0> d          -0.957   1.830   0.025  0.00  0.00     0.115 H 
ENDBRANCH   6   8
ENDBRANCH   1   6
TORSDOF 2
