REMARK  3 active torsions:
REMARK  status: ('A' for Active; 'I' for Inactive)
REMARK    1  A    between atoms: C1_1  and  C2_2 
REMARK    2  A    between atoms: C2_2  and  C3_4 
REMARK    3  A    between atoms: C2_2  and  N1_6 
REMARK       I    between atoms: N1_6  and  C4_7 
REMARK       I    between atoms: C4_7  and  N2_9 
ROOT
ATOM      1  C2  <0> d          -1.290   1.681   0.017  0.00  0.00     0.094 C 
ATOM      2  H1  <0> d          -1.198   2.596  -0.568  0.00  0.00     0.089 H 
ENDROOT
BRANCH   1   3
ATOM      3  C1  <0> d          -1.667   2.032   1.458  0.00  0.00    -0.048 C 
ATOM      4  H2  <0> d          -0.893   2.665   1.892  0.00  0.00     0.030 H 
ATOM      5  H3  <0> d          -2.618   2.564   1.465  0.00  0.00     0.030 H 
ATOM      6  H4  <0> d          -1.758   1.117   2.043  0.00  0.00     0.030 H 
ENDBRANCH   1   3
BRANCH   1   7
ATOM      7  C3  <0> d          -2.360   0.806  -0.583  0.00  0.00     0.196 C 
ATOM      8  O1  <0> d          -2.083  -0.302  -0.978  0.00  0.00    -0.646 OA
ATOM      9  O3  <0> d          -3.620   1.256  -0.678  0.00  0.00    -0.646 OA
ENDBRANCH   1   7
BRANCH   1  10
ATOM     10  N1  <0> d          -0.011   0.966   0.007  0.00  0.00    -0.329 N 
ATOM     11  C4  <0> d           1.147   1.655  -0.000  0.00  0.00     0.314 C 
ATOM     12  O2  <0> d           1.130   2.871   0.007  0.00  0.00    -0.248 OA
ATOM     13  N2  <0> d           2.323   0.998  -0.015  0.00  0.00    -0.352 N 
ATOM     14  H6  <0> d           2.336   0.028  -0.020  0.00  0.00     0.160 HD
ATOM     15  H7  <0> d           3.156   1.494  -0.020  0.00  0.00     0.160 HD
ATOM     16  H5  <0> d           0.002  -0.004   0.002  0.00  0.00     0.165 HD
ENDBRANCH   1  10
TORSDOF 3
