REMARK  1 active torsions:
REMARK  status: ('A' for Active; 'I' for Inactive)
REMARK    1  A    between atoms: C3_4  and  N2_6 
ROOT
ATOM      1  N2  <0> d          -1.064  -0.890   0.007  0.00  0.00    -0.262 NA
ATOM      2  C4  <0> d          -1.893  -0.732  -1.216  0.00  0.00    -0.015 C 
ATOM      3  C5  <0> d          -2.659  -2.076  -1.300  0.00  0.00    -0.053 C 
ATOM      4  C6  <0> d          -1.607  -3.104  -0.827  0.00  0.00    -0.053 C 
ATOM      5  C7  <0> d          -0.590  -2.290  -0.005  0.00  0.00    -0.015 C 
ATOM      6  H3  <0> d          -2.587   0.101  -1.105  0.00  0.00     0.056 H 
ATOM      7  H4  <0> d          -1.261  -0.594  -2.093  0.00  0.00     0.056 H 
ATOM      8  H5  <0> d          -2.965  -2.282  -2.326  0.00  0.00     0.034 H 
ATOM      9  H6  <0> d          -3.522  -2.073  -0.635  0.00  0.00     0.034 H 
ATOM     10  H7  <0> d          -1.117  -3.567  -1.684  0.00  0.00     0.034 H 
ATOM     11  H8  <0> d          -2.075  -3.865  -0.202  0.00  0.00     0.034 H 
ATOM     12  H9  <0> d           0.394  -2.345  -0.471  0.00  0.00     0.056 H 
ATOM     13  H10 <0> d          -0.539  -2.674   1.014  0.00  0.00     0.056 H 
ENDROOT
BRANCH   1  14
ATOM     14  C3  <0> d           0.002  -0.004   0.002  0.00  0.00     0.147 A 
ATOM     15  S1  <0> d          -0.021   1.732   0.012  0.00  0.00    -0.069 SA
ATOM     16  C2  <0> d           1.747   1.989  -0.004  0.00  0.00    -0.025 A 
ATOM     17  C1  <0> d           2.188   0.709  -0.015  0.00  0.00     0.011 A 
ATOM     18  H2  <0> d           2.309   2.911  -0.004  0.00  0.00     0.097 H 
ATOM     19  N1  <0> d           1.296  -0.264  -0.012  0.00  0.00    -0.241 NA
ATOM     20  H1  <0> d           3.245   0.489  -0.026  0.00  0.00     0.115 H 
ENDBRANCH   1  14
TORSDOF 1
