REMARK  3 active torsions:
REMARK  status: ('A' for Active; 'I' for Inactive)
REMARK    1  A    between atoms: C1_1  and  C2_2 
REMARK    2  A    between atoms: C5_5  and  C8_9 
REMARK    3  A    between atoms: C8_9  and  O1_10 
ROOT
ATOM      1  C2  <0> d           1.175   1.783   0.000  0.00  0.00    -0.040 A 
ATOM      2  C3  <0> d          -0.013   1.076   0.008  0.00  0.00    -0.075 A 
ATOM      3  C4  <0> d          -1.219   1.750   0.017  0.00  0.00    -0.074 A 
ATOM      4  C5  <0> d          -1.238   3.133   0.030  0.00  0.00    -0.033 A 
ATOM      5  C6  <0> d          -0.052   3.841   0.022  0.00  0.00    -0.053 A 
ATOM      6  C7  <0> d           1.156   3.166   0.008  0.00  0.00     0.040 A 
ATOM      7 Cl1  <0> d           2.647   4.055  -0.003  0.00  0.00    -0.084 Cl
ATOM      8  H4  <0> d           0.002  -0.004   0.002  0.00  0.00     0.084 H 
ATOM      9  H5  <0> d          -2.147   1.198   0.019  0.00  0.00     0.084 H 
ATOM     10  H6  <0> d          -0.067   4.921   0.028  0.00  0.00     0.087 H 
ENDROOT
BRANCH   4  11
ATOM     11  C8  <0> d          -2.554   3.868   0.046  0.00  0.00     0.040 C 
ATOM     12  H7  <0> d          -3.300   3.265   0.564  0.00  0.00     0.081 H 
ATOM     13  H8  <0> d          -2.433   4.819   0.563  0.00  0.00     0.081 H 
BRANCH  11  14
ATOM     14  O1  <0> d          -2.982   4.107  -1.296  0.00  0.00    -0.396 OA
ATOM     15  H9  <0> d          -3.825   4.577  -1.363  0.00  0.00     0.209 HD
ENDBRANCH  11  14
ENDBRANCH   4  11
BRANCH   1  16
ATOM     16  C1  <0> d           2.490   1.047  -0.016  0.00  0.00    -0.050 C 
ATOM     17  H1  <0> d           2.797   0.876  -1.048  0.00  0.00     0.033 H 
ATOM     18  H2  <0> d           3.247   1.644   0.494  0.00  0.00     0.033 H 
ATOM     19  H3  <0> d           2.378   0.091   0.494  0.00  0.00     0.033 H 
ENDBRANCH   1  16
TORSDOF 3
