REMARK  3 active torsions:
REMARK  status: ('A' for Active; 'I' for Inactive)
REMARK    1  A    between atoms: C1_1  and  C2_2 
REMARK    2  A    between atoms: C2_2  and  C3_3 
REMARK    3  A    between atoms: C3_3  and  C4_5 
ROOT
ATOM      1  C4  <0> d          -0.198   1.216   2.578  0.00  0.00     0.013 A 
ATOM      2  C5  <0> d           0.948   0.422   2.695  0.00  0.00    -0.069 A 
ATOM      3  C6  <0> d           1.433   0.096   3.944  0.00  0.00    -0.079 A 
ATOM      4  C7  <0> d           0.784   0.543   5.081  0.00  0.00    -0.046 A 
ATOM      5  C8  <0> d          -0.355   1.326   4.975  0.00  0.00     0.117 A 
ATOM      6  C9  <0> d          -0.850   1.665   3.730  0.00  0.00    -0.032 A 
ATOM      7  F1  <0> d          -0.983   1.758   6.090  0.00  0.00    -0.206 F 
ATOM      8  H6  <0> d           1.454   0.068   1.809  0.00  0.00     0.085 H 
ATOM      9  H7  <0> d           2.320  -0.513   4.034  0.00  0.00     0.083 H 
ATOM     10  H8  <0> d           1.167   0.281   6.056  0.00  0.00     0.088 H 
ATOM     11  H9  <0> d          -1.737   2.275   3.648  0.00  0.00     0.089 H 
ENDROOT
BRANCH   1  12
ATOM     12  C3  <0> d          -0.718   1.572   1.248  0.00  0.00     0.159 C 
ATOM     13  O1  <0> d          -1.714   2.256   1.150  0.00  0.00    -0.292 OA
BRANCH  12  14
ATOM     14  C2  <0> d          -0.013   1.086   0.008  0.00  0.00    -0.008 C 
ATOM     15  H4  <0> d           0.001   0.086   0.002  0.00  0.00     0.044 H 
ATOM     16  H5  <0> d           1.010   1.463   0.000  0.00  0.00     0.044 H 
BRANCH  14  17
ATOM     17  C1  <0> d          -0.753   1.593  -1.232  0.00  0.00    -0.070 C 
ATOM     18  H1  <0> d          -0.767   2.683  -1.226  0.00  0.00     0.028 H 
ATOM     19  H2  <0> d          -0.242   1.241  -2.128  0.00  0.00     0.028 H 
ATOM     20  H3  <0> d          -1.775   1.215  -1.224  0.00  0.00     0.028 H 
ENDBRANCH  14  17
ENDBRANCH  12  14
ENDBRANCH   1  12
TORSDOF 3
