REMARK  3 active torsions:
REMARK  status: ('A' for Active; 'I' for Inactive)
REMARK    1  A    between atoms: N1_5  and  C5_7 
REMARK    2  A    between atoms: C5_7  and  C6_8 
REMARK    3  A    between atoms: C6_8  and  C7_9 
REMARK       I    between atoms: C7_9  and  N2_11 
ROOT
ATOM      1  C1  <0> d          -0.787   1.610   1.239  0.00  0.00    -0.042 C 
ATOM      2  C2  <0> d          -0.013   1.086   0.008  0.00  0.00     0.011 C 
ATOM      3  C3  <0> d          -0.793   1.611  -1.176  0.00  0.00     0.219 C 
ATOM      4  O1  <0> d          -0.377   1.665  -2.314  0.00  0.00    -0.273 OA
ATOM      5  N1  <0> d          -2.016   2.009  -0.784  0.00  0.00    -0.352 N 
ATOM      6  C4  <0> d          -2.209   1.800   0.655  0.00  0.00    -0.002 C 
ATOM      7  H1  <0> d          -0.411   2.575   1.611  0.00  0.00     0.036 H 
ATOM      8  H2  <0> d          -0.825   0.888   2.068  0.00  0.00     0.036 H 
ATOM      9  H3  <0> d           1.016   1.475   0.029  0.00  0.00     0.047 H 
ATOM     10  H4  <0> d           0.011  -0.014   0.030  0.00  0.00     0.047 H 
ATOM     11  H5  <0> d          -2.810   0.900   0.854  0.00  0.00     0.064 H 
ATOM     12  H6  <0> d          -2.686   2.671   1.128  0.00  0.00     0.064 H 
ENDROOT
BRANCH   5  13
ATOM     13  C5  <0> d          -3.027   2.577  -1.680  0.00  0.00     0.005 C 
ATOM     14  H7  <0> d          -3.662   3.278  -1.118  0.00  0.00     0.065 H 
ATOM     15  H8  <0> d          -2.530   3.112  -2.502  0.00  0.00     0.065 H 
BRANCH  13  16
ATOM     16  C6  <0> d          -3.892   1.452  -2.252  0.00  0.00     0.024 C 
ATOM     17  H9  <0> d          -3.257   0.751  -2.814  0.00  0.00     0.049 H 
ATOM     18  H10 <0> d          -4.390   0.918  -1.429  0.00  0.00     0.049 H 
BRANCH  16  19
ATOM     19  C7  <0> d          -4.932   2.037  -3.173  0.00  0.00     0.216 C 
ATOM     20  O2  <0> d          -4.977   3.235  -3.354  0.00  0.00    -0.274 OA
ATOM     21  N2  <0> d          -5.812   1.228  -3.795  0.00  0.00    -0.370 N 
ATOM     22  H11 <0> d          -6.571   1.655  -4.467  0.00  0.00     0.159 HD
ATOM     23  H12 <0> d          -5.771   0.141  -3.631  0.00  0.00     0.159 HD
ENDBRANCH  16  19
ENDBRANCH  13  16
ENDBRANCH   5  13
TORSDOF 3
