REMARK  3 active torsions:
REMARK  status: ('A' for Active; 'I' for Inactive)
REMARK    1  A    between atoms: C1_1  and  C2_2 
REMARK    2  A    between atoms: C3_4  and  N5_11 
REMARK    3  A    between atoms: C5_6  and  N3_8 
ROOT
ATOM      1  C2  <0> d          -2.392   3.622   0.033  0.00  0.00     0.127 A 
ATOM      2  N1  <0> d          -3.556   3.004   0.035  0.00  0.00    -0.215 NA
ATOM      3  C3  <0> d          -3.629   1.676   0.028  0.00  0.00     0.148 A 
ATOM      4  C4  <0> d          -2.433   0.932   0.019  0.00  0.00     0.135 A 
ATOM      5  C5  <0> d          -1.216   1.640   0.017  0.00  0.00     0.148 A 
ATOM      6  N2  <0> d          -1.248   2.969   0.030  0.00  0.00    -0.215 NA
ATOM      7  C6  <0> d          -2.455  -0.500   0.011  0.00  0.00     0.107 C 
ATOM      8  N4  <0> d          -2.472  -1.636   0.006  0.00  0.00    -0.191 NA
ENDROOT
BRANCH   3   9
ATOM      9  N5  <0> d          -4.853   1.039   0.031  0.00  0.00    -0.383 N 
ATOM     10  H6  <0> d          -4.901  -0.060   0.025  0.00  0.00     0.157 HD
ATOM     11  H7  <0> d          -5.781   1.630   0.039  0.00  0.00     0.157 HD
ENDBRANCH   3   9
BRANCH   5  12
ATOM     12  N3  <0> d          -0.011   0.966   0.007  0.00  0.00    -0.383 N 
ATOM     13  H4  <0> d           0.934   1.529   0.006  0.00  0.00     0.157 HD
ATOM     14  H5  <0> d           0.004  -0.134   0.002  0.00  0.00     0.157 HD
ENDBRANCH   5  12
BRANCH   1  15
ATOM     15  C1  <0> d          -2.370   5.129   0.041  0.00  0.00    -0.019 C 
ATOM     16  H1  <0> d          -3.401   5.511   0.043  0.00  0.00     0.037 H 
ATOM     17  H2  <0> d          -1.845   5.492  -0.855  0.00  0.00     0.037 H 
ATOM     18  H3  <0> d          -1.846   5.483   0.941  0.00  0.00     0.037 H 
ENDBRANCH   1  15
TORSDOF 3
