REMARK  4 active torsions:
REMARK  status: ('A' for Active; 'I' for Inactive)
REMARK    1  A    between atoms: C1_1  and  C2_2 
REMARK    2  A    between atoms: C2_2  and  C8_10 
REMARK    3  A    between atoms: C5_7  and  C6_8 
REMARK    4  A    between atoms: C5_7  and  C7_9 
ROOT
ATOM      1  C2  <0> d          -1.440  -0.553  -0.007  0.00  0.00    -0.008 C 
ATOM      2  C3  <0> d          -1.491  -1.380  -1.312  0.00  0.00     0.025 C 
ATOM      3  C4  <0> d          -0.028  -1.569  -1.671  0.00  0.00     0.260 C 
ATOM      4  O1  <0> d           0.452  -2.511  -2.254  0.00  0.00    -0.265 OA
ATOM      5  O2  <0> d           0.635  -0.489  -1.216  0.00  0.00    -0.310 OA
ATOM      6  C5  <0> d           0.002  -0.004   0.002  0.00  0.00     0.071 C 
ATOM      7  H4  <0> d          -1.970  -2.344  -1.137  0.00  0.00     0.049 H 
ATOM      8  H5  <0> d          -2.013  -0.830  -2.095  0.00  0.00     0.049 H 
ENDROOT
BRANCH   1   9
ATOM      9  C1  <0> d          -1.685  -1.447   1.210  0.00  0.00    -0.066 C 
ATOM     10  H1  <0> d          -1.534  -0.869   2.121  0.00  0.00     0.028 H 
ATOM     11  H2  <0> d          -2.708  -1.824   1.183  0.00  0.00     0.028 H 
ATOM     12  H3  <0> d          -0.989  -2.285   1.191  0.00  0.00     0.028 H 
ENDBRANCH   1   9
BRANCH   1  13
ATOM     13  C8  <0> d          -2.454   0.592  -0.049  0.00  0.00    -0.066 C 
ATOM     14  H12 <0> d          -2.296   1.184  -0.950  0.00  0.00     0.028 H 
ATOM     15  H13 <0> d          -3.464   0.182  -0.055  0.00  0.00     0.028 H 
ATOM     16  H14 <0> d          -2.323   1.224   0.829  0.00  0.00     0.028 H 
ENDBRANCH   1  13
BRANCH   6  17
ATOM     17  C6  <0> d          -0.019   1.526   0.010  0.00  0.00    -0.047 C 
ATOM     18  H6  <0> d           1.004   1.903   0.003  0.00  0.00     0.031 H 
ATOM     19  H7  <0> d          -0.546   1.887  -0.873  0.00  0.00     0.031 H 
ATOM     20  H8  <0> d          -0.529   1.877   0.907  0.00  0.00     0.031 H 
ENDBRANCH   6  17
BRANCH   6  21
ATOM     21  C7  <0> d           0.755  -0.525   1.228  0.00  0.00    -0.047 C 
ATOM     22  H9  <0> d           0.250  -0.189   2.134  0.00  0.00     0.031 H 
ATOM     23  H10 <0> d           0.774  -1.615   1.206  0.00  0.00     0.031 H 
ATOM     24  H11 <0> d           1.775  -0.143   1.217  0.00  0.00     0.031 H 
ENDBRANCH   6  21
TORSDOF 4
