REMARK  2 active torsions:
REMARK  status: ('A' for Active; 'I' for Inactive)
REMARK    1  A    between atoms: C1_1  and  C2_2 
REMARK    2  A    between atoms: C3_3  and  C5_10 
ROOT
ATOM      1  C2  <0> d           0.002  -0.004   0.002  0.00  0.00     0.032 A 
ATOM      2  C3  <0> d          -1.062  -0.800   0.003  0.00  0.00     0.032 A 
ATOM      3  N1  <0> d          -0.612  -2.112  -0.007  0.00  0.00    -0.311 N 
ATOM      4  H1  <0> d          -1.170  -2.906  -0.009  0.00  0.00     0.170 HD
ATOM      5  C4  <0> d           0.735  -2.092  -0.013  0.00  0.00     0.324 A 
ATOM      6  O1  <0> d           1.465  -3.067  -0.022  0.00  0.00    -0.247 OA
ATOM      7  N2  <0> d           1.135  -0.805  -0.014  0.00  0.00    -0.311 N 
ATOM      8  H2  <0> d           2.053  -0.493  -0.021  0.00  0.00     0.170 HD
ENDROOT
BRANCH   1   9
ATOM      9  C1  <0> d          -0.018   1.503   0.010  0.00  0.00    -0.035 C 
ATOM     10  H3  <0> d           1.004   1.880   0.003  0.00  0.00     0.035 H 
ATOM     11  H4  <0> d          -0.545   1.864  -0.873  0.00  0.00     0.035 H 
ATOM     12  H5  <0> d          -0.529   1.854   0.907  0.00  0.00     0.035 H 
ENDBRANCH   1   9
BRANCH   2  13
ATOM     13  C5  <0> d          -2.502  -0.356   0.012  0.00  0.00    -0.035 C 
ATOM     14  H6  <0> d          -2.854  -0.243  -1.013  0.00  0.00     0.035 H 
ATOM     15  H7  <0> d          -3.109  -1.103   0.524  0.00  0.00     0.035 H 
ATOM     16  H8  <0> d          -2.584   0.598   0.532  0.00  0.00     0.035 H 
ENDBRANCH   2  13
TORSDOF 2
