REMARK  4 active torsions:
REMARK  status: ('A' for Active; 'I' for Inactive)
REMARK    1  A    between atoms: C1_1  and  C2_2 
REMARK    2  A    between atoms: C2_2  and  O1_3 
REMARK    3  A    between atoms: O1_3  and  C3_4 
REMARK    4  A    between atoms: C3_4  and  C4_6 
ROOT
ATOM      1  C4  <0> d           1.228   3.579   0.010  0.00  0.00     0.036 C 
ATOM      2  C5  <0> d           0.620   4.165  -1.286  0.00  0.00    -0.038 C 
ATOM      3  C6  <0> d           1.492   5.356  -1.614  0.00  0.00    -0.106 C 
ATOM      4  C7  <0> d           2.619   5.309  -0.958  0.00  0.00    -0.106 C 
ATOM      5  C8  <0> d           2.689   4.079  -0.084  0.00  0.00    -0.038 C 
ATOM      6  H6  <0> d           0.703   3.858   0.935  0.00  0.00     0.056 H 
ATOM      7  H7  <0> d           0.651   3.405  -2.081  0.00  0.00     0.040 H 
ATOM      8  H8  <0> d          -0.423   4.460  -1.101  0.00  0.00     0.040 H 
ATOM      9  H9  <0> d           1.287   6.194  -2.297  0.00  0.00     0.076 H 
ATOM     10  H10 <0> d           3.365   6.107  -1.088  0.00  0.00     0.076 H 
ATOM     11  H11 <0> d           3.061   4.314   0.924  0.00  0.00     0.040 H 
ATOM     12  H12 <0> d           3.317   3.294  -0.532  0.00  0.00     0.040 H 
ENDROOT
BRANCH   1  13
ATOM     13  C3  <0> d           1.170   2.073   0.002  0.00  0.00     0.263 C 
ATOM     14  O2  <0> d           2.192   1.429  -0.011  0.00  0.00    -0.265 OA
BRANCH  13  15
ATOM     15  O1  <0> d          -0.018   1.448   0.010  0.00  0.00    -0.322 OA
BRANCH  15  16
ATOM     16  C2  <0> d           0.002  -0.004   0.002  0.00  0.00     0.025 C 
ATOM     17  H4  <0> d           0.534  -0.368   0.893  0.00  0.00     0.074 H 
ATOM     18  H5  <0> d           0.517  -0.359  -0.903  0.00  0.00     0.074 H 
BRANCH  16  19
ATOM     19  C1  <0> d          -1.433  -0.534   0.013  0.00  0.00    -0.056 C 
ATOM     20  H1  <0> d          -1.418  -1.633   0.007  0.00  0.00     0.030 H 
ATOM     21  H2  <0> d          -1.965  -0.169  -0.878  0.00  0.00     0.030 H 
ATOM     22  H3  <0> d          -1.948  -0.179   0.918  0.00  0.00     0.030 H 
ENDBRANCH  16  19
ENDBRANCH  15  16
ENDBRANCH  13  15
ENDBRANCH   1  13
TORSDOF 4
