REMARK  0 active torsions:
REMARK  status: ('A' for Active; 'I' for Inactive)
ROOT
ATOM      1  C1  <0> d          -0.019   1.534   0.011  0.00  0.00     0.023 C 
ATOM      2  C2  <0> d           0.002  -0.004   0.002  0.00  0.00     0.105 C 
ATOM      3  H1  <0> d           0.014  -0.435  -0.999  0.00  0.00     0.072 H 
ATOM      4  C3  <0> d           1.394   0.090   0.649  0.00  0.00     0.324 C 
ATOM      5  C4  <0> d           1.518   1.476  -0.004  0.00  0.00     0.310 C 
ATOM      6  F1  <0> d           2.065   1.442  -1.292  0.00  0.00    -0.200 F 
ATOM      7  F2  <0> d           2.122   2.432   0.819  0.00  0.00    -0.200 F 
ATOM      8  F3  <0> d           1.361   0.130   2.047  0.00  0.00    -0.198 F 
ATOM      9  F4  <0> d           2.306  -0.849   0.154  0.00  0.00    -0.198 F 
ATOM     10  C5  <0> d          -1.016  -0.612   0.874  0.00  0.00     0.070 C 
ATOM     11  N1  <0> d          -1.801  -1.082   1.548  0.00  0.00    -0.197 NA
ATOM     12  H2  <0> d          -0.448   1.969  -0.892  0.00  0.00     0.044 H 
ATOM     13  H3  <0> d          -0.431   1.960   0.925  0.00  0.00     0.044 H 
ENDROOT
TORSDOF 0
