REMARK  3 active torsions:
REMARK  status: ('A' for Active; 'I' for Inactive)
REMARK    1  A    between atoms: C1_1  and  C2_2 
REMARK    2  A    between atoms: C5_5  and  C8_9 
REMARK    3  A    between atoms: C6_6  and  O1_8 
ROOT
ATOM      1  C2  <0> d           0.002  -0.004   0.002  0.00  0.00    -0.059 A 
ATOM      2  C3  <0> d           0.006  -0.688  -1.200  0.00  0.00    -0.077 A 
ATOM      3  C4  <0> d           0.024  -2.071  -1.211  0.00  0.00    -0.074 A 
ATOM      4  C5  <0> d           0.039  -2.772  -0.020  0.00  0.00    -0.029 A 
ATOM      5  C6  <0> d           0.035  -2.088   1.186  0.00  0.00     0.072 A 
ATOM      6  C7  <0> d           0.023  -0.700   1.195  0.00  0.00    -0.045 A 
ATOM      7  H4  <0> d          -0.006  -0.142  -2.131  0.00  0.00     0.084 H 
ATOM      8  H5  <0> d           0.027  -2.603  -2.151  0.00  0.00     0.084 H 
ATOM      9  H6  <0> d           0.025  -0.166   2.133  0.00  0.00     0.088 H 
ENDROOT
BRANCH   1  10
ATOM     10  C1  <0> d          -0.018   1.503   0.010  0.00  0.00    -0.051 C 
ATOM     11  H1  <0> d           1.004   1.880   0.003  0.00  0.00     0.033 H 
ATOM     12  H2  <0> d          -0.545   1.864  -0.873  0.00  0.00     0.033 H 
ATOM     13  H3  <0> d          -0.529   1.854   0.907  0.00  0.00     0.033 H 
ENDBRANCH   1  10
BRANCH   5  14
ATOM     14  O1  <0> d           0.050  -2.776   2.358  0.00  0.00    -0.360 OA
ATOM     15  H7  <0> d           0.938  -2.963   2.694  0.00  0.00     0.217 HD
ENDBRANCH   5  14
BRANCH   4  16
ATOM     16  C8  <0> d           0.059  -4.279  -0.033  0.00  0.00    -0.049 C 
ATOM     17  H8  <0> d           1.091  -4.629  -0.041  0.00  0.00     0.033 H 
ATOM     18  H9  <0> d          -0.446  -4.656   0.856  0.00  0.00     0.033 H 
ATOM     19  H10 <0> d          -0.455  -4.641  -0.924  0.00  0.00     0.033 H 
ENDBRANCH   4  16
TORSDOF 3
