REMARK  2 active torsions:
REMARK  status: ('A' for Active; 'I' for Inactive)
REMARK    1  A    between atoms: C1_1  and  C2_2 
REMARK    2  A    between atoms: C7_7  and  C8_8 
ROOT
ATOM      1  C2  <0> d           0.002  -0.004   0.002  0.00  0.00    -0.053 A 
ATOM      2  C3  <0> d           0.006  -0.688  -1.200  0.00  0.00    -0.036 A 
ATOM      3  C4  <0> d           0.025  -2.071  -1.208  0.00  0.00     0.155 A 
ATOM      4  C5  <0> d           0.041  -2.771  -0.010  0.00  0.00     0.155 A 
ATOM      5  C6  <0> d           0.037  -2.083   1.190  0.00  0.00    -0.036 A 
ATOM      6  C7  <0> d           0.023  -0.701   1.196  0.00  0.00    -0.053 A 
ATOM      7  F1  <0> d           0.059  -4.122  -0.016  0.00  0.00    -0.203 F 
ATOM      8  F2  <0> d           0.028  -2.741  -2.382  0.00  0.00    -0.203 F 
ATOM      9  H4  <0> d          -0.007  -0.142  -2.131  0.00  0.00     0.089 H 
ATOM     10  H5  <0> d           0.049  -2.627   2.124  0.00  0.00     0.089 H 
ENDROOT
BRANCH   1  11
ATOM     11  C1  <0> d          -0.018   1.503   0.010  0.00  0.00    -0.051 C 
ATOM     12  H1  <0> d           1.004   1.880   0.003  0.00  0.00     0.033 H 
ATOM     13  H2  <0> d          -0.545   1.864  -0.873  0.00  0.00     0.033 H 
ATOM     14  H3  <0> d          -0.529   1.854   0.907  0.00  0.00     0.033 H 
ENDBRANCH   1  11
BRANCH   6  15
ATOM     15  C8  <0> d           0.025   0.047   2.504  0.00  0.00    -0.051 C 
ATOM     16  H6  <0> d          -1.002   0.214   2.829  0.00  0.00     0.033 H 
ATOM     17  H7  <0> d           0.554  -0.538   3.256  0.00  0.00     0.033 H 
ATOM     18  H8  <0> d           0.525   1.007   2.373  0.00  0.00     0.033 H 
ENDBRANCH   6  15
TORSDOF 2
