REMARK  1 active torsions:
REMARK  status: ('A' for Active; 'I' for Inactive)
REMARK    1  A    between atoms: C1_1  and  C2_2 
ROOT
ATOM      1  C2  <0> d          -2.652   2.485  -2.323  0.00  0.00    -0.055 A 
ATOM      2  C3  <0> d          -1.981   2.464  -3.529  0.00  0.00    -0.077 A 
ATOM      3  C4  <0> d          -0.680   2.001  -3.583  0.00  0.00    -0.082 A 
ATOM      4  C5  <0> d          -0.058   1.560  -2.432  0.00  0.00    -0.075 A 
ATOM      5  C6  <0> d          -0.732   1.580  -1.220  0.00  0.00    -0.024 A 
ATOM      6  C7  <0> d          -2.029   2.045  -1.166  0.00  0.00    -0.043 A 
ATOM      7  C8  <0> d          -2.797   2.096   0.130  0.00  0.00    -0.015 C 
ATOM      8  C9  <0> d          -2.119   1.209   1.174  0.00  0.00     0.115 C 
ATOM      9  N1  <0> d          -0.690   1.554   1.222  0.00  0.00     0.087 N 
ATOM     10  C10 <0> d          -0.013   1.086   0.008  0.00  0.00     0.135 C 
ATOM     11  H4  <0> d          -2.471   2.808  -4.428  0.00  0.00     0.084 H 
ATOM     12  H5  <0> d          -0.150   1.984  -4.524  0.00  0.00     0.083 H 
ATOM     13  H6  <0> d           0.958   1.198  -2.476  0.00  0.00     0.084 H 
ATOM     14  H7  <0> d          -2.827   3.132   0.498  0.00  0.00     0.042 H 
ATOM     15  H8  <0> d          -3.823   1.737  -0.039  0.00  0.00     0.042 H 
ATOM     16  H9  <0> d          -2.580   1.383   2.158  0.00  0.00     0.080 H 
ATOM     17  H10 <0> d          -2.241   0.153   0.893  0.00  0.00     0.080 H 
ATOM     18  H11 <0> d          -0.578   2.646   1.296  0.00  0.00     0.316 HD
ATOM     19  H12 <0> d           0.000  -0.014   0.007  0.00  0.00     0.086 H 
ATOM     20  H13 <0> d           1.020   1.465   0.006  0.00  0.00     0.086 H 
ENDROOT
BRANCH   1  21
ATOM     21  C1  <0> d          -4.071   2.990  -2.264  0.00  0.00    -0.051 C 
ATOM     22  H1  <0> d          -4.395   3.293  -3.270  0.00  0.00     0.033 H 
ATOM     23  H2  <0> d          -4.125   3.854  -1.585  0.00  0.00     0.033 H 
ATOM     24  H3  <0> d          -4.729   2.191  -1.892  0.00  0.00     0.033 H 
ENDBRANCH   1  21
TORSDOF 1
