REMARK  3 active torsions:
REMARK  status: ('A' for Active; 'I' for Inactive)
REMARK    1  A    between atoms: C1_1  and  C2_2 
REMARK    2  A    between atoms: C2_2  and  C6_8 
REMARK    3  A    between atoms: C4_4  and  C5_6 
ROOT
ATOM      1  C2  <0> d          -1.160   1.691   0.822  0.00  0.00    -0.026 A 
ATOM      2  C3  <0> d          -2.304   2.307   0.015  0.00  0.00    -0.044 A 
ATOM      3  C4  <0> d          -2.529   1.008   0.790  0.00  0.00     0.038 A 
ATOM      4  H1  <0> d          -2.618   0.087   0.214  0.00  0.00     0.057 H 
ATOM      5  H5  <0> d          -2.766   3.213   0.406  0.00  0.00     0.035 H 
ATOM      6  H6  <0> d          -2.246   2.241  -1.072  0.00  0.00     0.035 H 
ENDROOT
BRANCH   1   7
ATOM      7  C1  <0> d          -0.752   2.394   2.118  0.00  0.00    -0.068 C 
ATOM      8  H2  <0> d           0.018   3.136   1.902  0.00  0.00     0.028 H 
ATOM      9  H3  <0> d          -1.621   2.889   2.553  0.00  0.00     0.028 H 
ATOM     10  H4  <0> d          -0.361   1.660   2.823  0.00  0.00     0.028 H 
ENDBRANCH   1   7
BRANCH   1  11
ATOM     11  C6  <0> d          -0.022   1.029   0.043  0.00  0.00    -0.046 A 
ATOM     12  C8  <0> d           1.346   1.714   0.074  0.00  0.00    -0.061 A 
ATOM     13  C7  <0> d           0.499   1.754  -1.199  0.00  0.00    -0.061 A 
ATOM     14  H10 <0> d           1.435   2.635   0.649  0.00  0.00     0.033 H 
ATOM     15  H11 <0> d           2.229   1.074   0.071  0.00  0.00     0.033 H 
ATOM     16  H8  <0> d           0.825   1.141  -2.040  0.00  0.00     0.033 H 
ATOM     17  H9  <0> d           0.031   2.702  -1.462  0.00  0.00     0.033 H 
ATOM     18  H7  <0> d          -0.039  -0.060   0.021  0.00  0.00     0.041 H 
ENDBRANCH   1  11
BRANCH   3  19
ATOM     19  C5  <0> d          -3.371   1.079   2.038  0.00  0.00     0.177 C 
ATOM     20  O1  <0> d          -4.225   1.927   2.143  0.00  0.00    -0.648 OA
ATOM     21  O2  <0> d          -3.174   0.199   3.032  0.00  0.00    -0.648 OA
ENDBRANCH   3  19
TORSDOF 3
