REMARK  1 active torsions:
REMARK  status: ('A' for Active; 'I' for Inactive)
REMARK    1  A    between atoms: C1_1  and  C2_2 
ROOT
ATOM      1  C2  <0> d          -1.407   1.828   3.262  0.00  0.00     0.142 A 
ATOM      2  N1  <0> d          -0.610   1.132   2.498  0.00  0.00    -0.231 NA
ATOM      3  C3  <0> d          -0.729   1.577   1.241  0.00  0.00     0.066 A 
ATOM      4  C4  <0> d          -1.629   2.579   1.243  0.00  0.00     0.080 A 
ATOM      5  O1  <0> d          -2.052   2.733   2.506  0.00  0.00    -0.299 OA
ATOM      6  C5  <0> d          -2.045   3.352   0.018  0.00  0.00    -0.018 C 
ATOM      7  C6  <0> d          -1.010   3.104  -1.086  0.00  0.00    -0.059 C 
ATOM      8  C7  <0> d          -0.764   1.599  -1.226  0.00  0.00    -0.060 C 
ATOM      9  C8  <0> d          -0.013   1.086   0.008  0.00  0.00    -0.022 C 
ATOM     10  H4  <0> d          -2.086   4.416   0.251  0.00  0.00     0.043 H 
ATOM     11  H5  <0> d          -3.026   3.012  -0.315  0.00  0.00     0.043 H 
ATOM     12  H6  <0> d          -0.076   3.602  -0.827  0.00  0.00     0.033 H 
ATOM     13  H7  <0> d          -1.383   3.501  -2.030  0.00  0.00     0.033 H 
ATOM     14  H8  <0> d          -0.169   1.410  -2.119  0.00  0.00     0.033 H 
ATOM     15  H9  <0> d          -1.720   1.081  -1.311  0.00  0.00     0.033 H 
ATOM     16  H10 <0> d           0.002  -0.004   0.002  0.00  0.00     0.042 H 
ATOM     17  H11 <0> d           1.009   1.467   0.000  0.00  0.00     0.042 H 
ENDROOT
BRANCH   1  18
ATOM     18  C1  <0> d          -1.577   1.646   4.748  0.00  0.00    -0.015 C 
ATOM     19  H1  <0> d          -0.864   2.279   5.276  0.00  0.00     0.038 H 
ATOM     20  H2  <0> d          -2.592   1.924   5.035  0.00  0.00     0.038 H 
ATOM     21  H3  <0> d          -1.399   0.602   5.009  0.00  0.00     0.038 H 
ENDBRANCH   1  18
TORSDOF 1
