REMARK  0 active torsions:
REMARK  status: ('A' for Active; 'I' for Inactive)
ROOT
ATOM      1  C1  <0> d          -0.017   1.375   0.010  0.00  0.00    -0.061 A 
ATOM      2  C2  <0> d           0.002  -0.004   0.002  0.00  0.00    -0.060 A 
ATOM      3  C3  <0> d           1.209  -0.683  -0.013  0.00  0.00     0.034 A 
ATOM      4  C4  <0> d           2.404   0.017  -0.020  0.00  0.00    -0.060 A 
ATOM      5  C5  <0> d           2.399   1.396  -0.013  0.00  0.00    -0.061 A 
ATOM      6  C6  <0> d           1.185   2.087   0.002  0.00  0.00     0.044 A 
ATOM      7  C7  <0> d           1.173   3.518   0.009  0.00  0.00     0.099 C 
ATOM      8  N1  <0> d           1.163   4.654   0.015  0.00  0.00    -0.191 NA
ATOM      9 Cl1  <0> d           1.224  -2.419  -0.021  0.00  0.00    -0.084 Cl
ATOM     10  H1  <0> d          -0.959   1.903   0.017  0.00  0.00     0.085 H 
ATOM     11  H2  <0> d          -0.926  -0.556   0.008  0.00  0.00     0.086 H 
ATOM     12  H3  <0> d           3.342  -0.518  -0.032  0.00  0.00     0.086 H 
ATOM     13  H4  <0> d           3.331   1.941  -0.020  0.00  0.00     0.085 H 
ENDROOT
TORSDOF 0
