REMARK  3 active torsions:
REMARK  status: ('A' for Active; 'I' for Inactive)
REMARK    1  A    between atoms: C1_1  and  S1_2 
REMARK    2  A    between atoms: S1_2  and  C2_3 
REMARK    3  A    between atoms: C7_8  and  O1_9 
ROOT
ATOM      1  C2  <0> d           0.002  -0.004   0.002  0.00  0.00     0.033 A 
ATOM      2  C3  <0> d           1.216  -0.678  -0.013  0.00  0.00    -0.064 A 
ATOM      3  C4  <0> d           2.400   0.034  -0.021  0.00  0.00    -0.082 A 
ATOM      4  C5  <0> d           2.380   1.417  -0.013  0.00  0.00    -0.080 A 
ATOM      5  C6  <0> d           1.175   2.095   0.002  0.00  0.00    -0.050 A 
ATOM      6  C7  <0> d          -0.017   1.389   0.010  0.00  0.00     0.082 A 
ATOM      7  H4  <0> d           1.234  -1.757  -0.019  0.00  0.00     0.085 H 
ATOM      8  H5  <0> d           3.344  -0.491  -0.033  0.00  0.00     0.083 H 
ATOM      9  H6  <0> d           3.308   1.968  -0.019  0.00  0.00     0.083 H 
ATOM     10  H7  <0> d           1.163   3.175   0.008  0.00  0.00     0.087 H 
ENDROOT
BRANCH   1  11
ATOM     11  S1  <0> d          -1.510  -0.908   0.011  0.00  0.00    -0.132 SA
BRANCH  11  12
ATOM     12  C1  <0> d          -0.984  -2.644  -0.003  0.00  0.00    -0.030 C 
ATOM     13  H1  <0> d          -0.379  -2.847   0.880  0.00  0.00     0.042 H 
ATOM     14  H2  <0> d          -1.862  -3.290   0.001  0.00  0.00     0.042 H 
ATOM     15  H3  <0> d          -0.395  -2.838  -0.900  0.00  0.00     0.042 H 
ENDBRANCH  11  12
ENDBRANCH   1  11
BRANCH   6  16
ATOM     16  O1  <0> d          -1.203   2.055   0.019  0.00  0.00    -0.359 OA
ATOM     17  H8  <0> d          -1.542   2.243   0.905  0.00  0.00     0.217 HD
ENDBRANCH   6  16
TORSDOF 3
