REMARK  4 active torsions:
REMARK  status: ('A' for Active; 'I' for Inactive)
REMARK    1  A    between atoms: C1_1  and  C2_2 
REMARK    2  A    between atoms: C5_5  and  O1_11 
REMARK    3  A    between atoms: C6_6  and  C8_8 
REMARK    4  A    between atoms: C8_8  and  C9_9 
ROOT
ATOM      1  C2  <0> d          -1.040  -3.934  -2.042  0.00  0.00    -0.061 A 
ATOM      2  C3  <0> d          -1.364  -3.474  -3.305  0.00  0.00    -0.075 A 
ATOM      3  C4  <0> d          -1.666  -2.140  -3.499  0.00  0.00    -0.050 A 
ATOM      4  C5  <0> d          -1.644  -1.262  -2.424  0.00  0.00     0.072 A 
ATOM      5  C6  <0> d          -1.318  -1.726  -1.159  0.00  0.00    -0.021 A 
ATOM      6  C7  <0> d          -1.012  -3.061  -0.971  0.00  0.00    -0.068 A 
ATOM      7  H4  <0> d          -1.381  -4.157  -4.141  0.00  0.00     0.084 H 
ATOM      8  H5  <0> d          -1.919  -1.780  -4.485  0.00  0.00     0.087 H 
ATOM      9  H6  <0> d          -0.755  -3.422   0.013  0.00  0.00     0.085 H 
ENDROOT
BRANCH   5  10
ATOM     10  C8  <0> d          -1.293  -0.775   0.010  0.00  0.00    -0.024 C 
ATOM     11  H7  <0> d          -1.374  -1.339   0.939  0.00  0.00     0.046 H 
ATOM     12  H8  <0> d          -2.130  -0.081  -0.068  0.00  0.00     0.046 H 
BRANCH  10  13
ATOM     13  C9  <0> d           0.002  -0.004   0.002  0.00  0.00    -0.108 C 
ATOM     14  C10 <0> d          -0.016   1.306   0.009  0.00  0.00    -0.124 C 
ATOM     15  H10 <0> d           0.912   1.859   0.003  0.00  0.00     0.066 H 
ATOM     16  H11 <0> d          -0.958   1.833   0.017  0.00  0.00     0.066 H 
ATOM     17  H9  <0> d           0.945  -0.531  -0.010  0.00  0.00     0.076 H 
ENDBRANCH  10  13
ENDBRANCH   5  10
BRANCH   4  18
ATOM     18  O1  <0> d          -1.939   0.051  -2.612  0.00  0.00    -0.360 OA
ATOM     19  H12 <0> d          -1.172   0.601  -2.824  0.00  0.00     0.217 HD
ENDBRANCH   4  18
BRANCH   1  20
ATOM     20  C1  <0> d          -0.712  -5.390  -1.834  0.00  0.00    -0.051 C 
ATOM     21  H1  <0> d           0.359  -5.543  -1.966  0.00  0.00     0.033 H 
ATOM     22  H2  <0> d          -1.000  -5.687  -0.825  0.00  0.00     0.033 H 
ATOM     23  H3  <0> d          -1.257  -5.993  -2.560  0.00  0.00     0.033 H 
ENDBRANCH   1  20
TORSDOF 4
