REMARK  4 active torsions:
REMARK  status: ('A' for Active; 'I' for Inactive)
REMARK    1  A    between atoms: C1_1  and  C2_2 
REMARK    2  A    between atoms: C3_4  and  C6_10 
REMARK    3  A    between atoms: C6_10  and  O4_12 
REMARK    4  A    between atoms: O4_12  and  C7_13 
ROOT
ATOM      1  C2  <0> d           1.375   1.828  -0.001  0.00  0.00     0.054 C 
ATOM      2  H1  <0> d           1.803   1.739   0.997  0.00  0.00     0.084 H 
ATOM      3  C3  <0> d           2.044   0.826  -0.968  0.00  0.00     0.114 C 
ATOM      4  H2  <0> d           2.125   1.241  -1.874  0.00  0.00     0.071 H 
ATOM      5  C4  <0> d           1.119  -0.381  -0.959  0.00  0.00     0.166 C 
ATOM      6  O1  <0> d           1.243  -1.410  -1.578  0.00  0.00    -0.295 OA
ATOM      7  C5  <0> d           0.002  -0.004   0.002  0.00  0.00     0.075 C 
ATOM      8  O2  <0> d          -0.018   1.440   0.010  0.00  0.00    -0.378 OA
ATOM      9  H6  <0> d           0.199  -0.382   0.907  0.00  0.00     0.086 H 
ATOM     10  H7  <0> d          -0.952  -0.393  -0.355  0.00  0.00     0.086 H 
ENDROOT
BRANCH   3  11
ATOM     11  C6  <0> d           3.413   0.444  -0.466  0.00  0.00     0.272 C 
ATOM     12  O3  <0> d           3.859   0.966   0.528  0.00  0.00    -0.264 OA
BRANCH  11  13
ATOM     13  O4  <0> d           4.136  -0.475  -1.123  0.00  0.00    -0.326 OA
BRANCH  13  14
ATOM     14  C7  <0> d           5.446  -0.794  -0.583  0.00  0.00     0.013 C 
ATOM     15  H8  <0> d           5.923  -1.549  -1.208  0.00  0.00     0.067 H 
ATOM     16  H9  <0> d           6.061   0.106  -0.567  0.00  0.00     0.067 H 
ATOM     17  H10 <0> d           5.337  -1.177   0.431  0.00  0.00     0.067 H 
ENDBRANCH  13  14
ENDBRANCH  11  13
ENDBRANCH   3  11
BRANCH   1  18
ATOM     18  C1  <0> d           1.527   3.258  -0.524  0.00  0.00    -0.051 C 
ATOM     19  H3  <0> d           0.995   3.944   0.136  0.00  0.00     0.030 H 
ATOM     20  H4  <0> d           2.583   3.525  -0.550  0.00  0.00     0.030 H 
ATOM     21  H5  <0> d           1.110   3.324  -1.529  0.00  0.00     0.030 H 
ENDBRANCH   1  18
TORSDOF 4
