REMARK  4 active torsions:
REMARK  status: ('A' for Active; 'I' for Inactive)
REMARK    1  A    between atoms: C2_2  and  C3_3 
REMARK    2  A    between atoms: C3_3  and  C4_4 
REMARK    3  A    between atoms: C8_8  and  N2_11 
REMARK    4  A    between atoms: C9_9  and  N1_10 
ROOT
ATOM      1  C4  <0> d          -1.318  -1.726  -1.159  0.00  0.00    -0.026 A 
ATOM      2  C5  <0> d          -1.926  -1.350  -2.343  0.00  0.00    -0.074 A 
ATOM      3  C6  <0> d          -1.952  -2.219  -3.417  0.00  0.00    -0.080 A 
ATOM      4  C7  <0> d          -1.370  -3.470  -3.315  0.00  0.00    -0.055 A 
ATOM      5  C8  <0> d          -0.758  -3.854  -2.132  0.00  0.00     0.052 A 
ATOM      6  C9  <0> d          -0.728  -2.975  -1.049  0.00  0.00     0.059 A 
ATOM      7  H6  <0> d          -2.382  -0.375  -2.428  0.00  0.00     0.084 H 
ATOM      8  H7  <0> d          -2.429  -1.921  -4.339  0.00  0.00     0.083 H 
ATOM      9  H8  <0> d          -1.392  -4.146  -4.156  0.00  0.00     0.087 H 
ENDROOT
BRANCH   1  10
ATOM     10  C3  <0> d          -1.293  -0.775   0.010  0.00  0.00    -0.024 C 
ATOM     11  H4  <0> d          -1.374  -1.339   0.939  0.00  0.00     0.046 H 
ATOM     12  H5  <0> d          -2.130  -0.081  -0.068  0.00  0.00     0.046 H 
BRANCH  10  13
ATOM     13  C2  <0> d           0.002  -0.004   0.002  0.00  0.00    -0.108 C 
ATOM     14  C1  <0> d          -0.016   1.306   0.009  0.00  0.00    -0.124 C 
ATOM     15  H1  <0> d           0.912   1.859   0.003  0.00  0.00     0.066 H 
ATOM     16  H2  <0> d          -0.958   1.833   0.017  0.00  0.00     0.066 H 
ATOM     17  H3  <0> d           0.945  -0.531  -0.010  0.00  0.00     0.076 H 
ENDBRANCH  10  13
ENDBRANCH   1  10
BRANCH   6  18
ATOM     18  N1  <0> d          -0.107  -3.356   0.147  0.00  0.00    -0.397 N 
ATOM     19  H9  <0> d          -0.090  -2.745   0.900  0.00  0.00     0.156 HD
ATOM     20  H10 <0> d           0.306  -4.231   0.222  0.00  0.00     0.156 HD
ENDBRANCH   6  18
BRANCH   5  21
ATOM     21  N2  <0> d          -0.168  -5.120  -2.026  0.00  0.00    -0.397 N 
ATOM     22  H11 <0> d          -0.187  -5.729  -2.781  0.00  0.00     0.156 HD
ATOM     23  H12 <0> d           0.260  -5.388  -1.198  0.00  0.00     0.156 HD
ENDBRANCH   5  21
TORSDOF 4
