REMARK  1 active torsions:
REMARK  status: ('A' for Active; 'I' for Inactive)
REMARK    1  A    between atoms: C7_9  and  O4_12 
ROOT
ATOM      1  C1  <0> d          -0.017   1.421   0.010  0.00  0.00     0.041 C 
ATOM      2  C2  <0> d           1.385   1.990  -0.001  0.00  0.00    -0.047 C 
ATOM      3  C3  <0> d           2.331   1.282  -0.641  0.00  0.00     0.089 A 
ATOM      4  C4  <0> d           2.000  -0.022  -1.256  0.00  0.00     0.036 A 
ATOM      5  C5  <0> d           3.118  -0.469  -1.838  0.00  0.00     0.004 A 
ATOM      6  C6  <0> d           4.135   0.492  -1.602  0.00  0.00     0.288 A 
ATOM      7  O1  <0> d           5.280   0.418  -2.009  0.00  0.00    -0.260 OA
ATOM      8  O2  <0> d           3.637   1.502  -0.856  0.00  0.00    -0.275 OA
ATOM      9  C7  <0> d           0.616  -0.608  -1.149  0.00  0.00     0.158 C 
ATOM     10  H1  <0> d           0.041  -0.373  -2.045  0.00  0.00     0.137 H 
ATOM     11  O3  <0> d           0.002  -0.004   0.002  0.00  0.00    -0.353 OA
ATOM     12  H2  <0> d          -0.536   1.766   0.904  0.00  0.00     0.080 H 
ATOM     13  H3  <0> d          -0.553   1.776  -0.871  0.00  0.00     0.080 H 
ATOM     14  H4  <0> d           1.616   2.926   0.486  0.00  0.00     0.084 H 
ATOM     15  H5  <0> d           3.227  -1.393  -2.386  0.00  0.00     0.094 H 
ENDROOT
BRANCH   9  16
ATOM     16  O4  <0> d           0.696  -2.024  -0.977  0.00  0.00    -0.367 OA
ATOM     17  H6  <0> d          -0.164  -2.461  -0.902  0.00  0.00     0.213 HD
ENDBRANCH   9  16
TORSDOF 1
