REMARK  0 active torsions:
REMARK  status: ('A' for Active; 'I' for Inactive)
ROOT
ATOM      1  C1  <0> d          -0.013   1.076   0.008  0.00  0.00    -0.082 A 
ATOM      2  C2  <0> d          -1.243   1.740   0.018  0.00  0.00    -0.081 A 
ATOM      3  C3  <0> d          -1.330   3.094   0.031  0.00  0.00    -0.052 A 
ATOM      4  C4  <0> d          -0.149   3.865   0.024  0.00  0.00     0.096 A 
ATOM      5  C5  <0> d           1.150   3.159   0.008  0.00  0.00     0.019 A 
ATOM      6  C6  <0> d           1.164   1.753   0.000  0.00  0.00    -0.069 A 
ATOM      7  C7  <0> d           2.067   4.188   0.005  0.00  0.00     0.056 A 
ATOM      8  O1  <0> d           1.356   5.320   0.018  0.00  0.00    -0.224 OA
ATOM      9  N1  <0> d           0.159   5.141   0.029  0.00  0.00    -0.128 NA
ATOM     10  H1  <0> d           0.002  -0.004   0.002  0.00  0.00     0.083 H 
ATOM     11  H2  <0> d          -2.152   1.157   0.018  0.00  0.00     0.083 H 
ATOM     12  H3  <0> d          -2.295   3.577   0.043  0.00  0.00     0.087 H 
ATOM     13  H4  <0> d           2.102   1.217  -0.012  0.00  0.00     0.085 H 
ATOM     14  H5  <0> d           3.143   4.098  -0.005  0.00  0.00     0.128 H 
ENDROOT
TORSDOF 0
