REMARK  2 active torsions:
REMARK  status: ('A' for Active; 'I' for Inactive)
REMARK    1  A    between atoms: C1_1  and  C2_2 
REMARK    2  A    between atoms: C3_3  and  C4_8 
ROOT
ATOM      1  C2  <0> d           1.247  -0.416  -0.012  0.00  0.00     0.089 A 
ATOM      2  C3  <0> d           2.037   0.752  -0.013  0.00  0.00     0.180 A 
ATOM      3  N1  <0> d           1.178   1.761   0.000  0.00  0.00    -0.148 NA
ATOM      4  N2  <0> d          -0.015   1.281   0.009  0.00  0.00    -0.196 N 
ATOM      5  H1  <0> d          -0.848   1.835   0.020  0.00  0.00     0.213 HD
ATOM      6  N3  <0> d           0.002  -0.004   0.002  0.00  0.00    -0.160 NA
ENDROOT
BRANCH   1   7
ATOM      7  C1  <0> d           1.733  -1.842  -0.025  0.00  0.00    -0.031 C 
ATOM      8  H2  <0> d           1.840  -2.180  -1.056  0.00  0.00     0.035 H 
ATOM      9  H3  <0> d           2.698  -1.902   0.479  0.00  0.00     0.035 H 
ATOM     10  H4  <0> d           1.013  -2.476   0.493  0.00  0.00     0.035 H 
ENDBRANCH   1   7
BRANCH   2  11
ATOM     11  C4  <0> d           3.511   0.834  -0.027  0.00  0.00     0.232 C 
ATOM     12  O1  <0> d           4.176  -0.183  -0.039  0.00  0.00    -0.643 OA
ATOM     13  O2  <0> d           4.119   2.036  -0.026  0.00  0.00    -0.643 OA
ENDBRANCH   2  11
TORSDOF 2
