REMARK  5 active torsions:
REMARK  status: ('A' for Active; 'I' for Inactive)
REMARK    1  A    between atoms: C1_1  and  C2_2 
REMARK    2  A    between atoms: C2_2  and  C5_5 
REMARK    3  A    between atoms: C5_5  and  C6_6 
REMARK    4  A    between atoms: C6_6  and  C7_7 
REMARK    5  A    between atoms: C7_7  and  C8_8 
ROOT
ATOM      1  C5  <0> d           2.120   0.797  -1.308  0.00  0.00    -0.058 C 
ATOM      2  H8  <0> d           1.523   0.344  -2.114  0.00  0.00     0.034 H 
ATOM      3  H9  <0> d           2.365   1.836  -1.574  0.00  0.00     0.034 H 
ENDROOT
BRANCH   1   4
ATOM      4  C2  <0> d           1.317   0.779  -0.006  0.00  0.00    -0.044 A 
ATOM      5  C4  <0> d           0.002  -0.004   0.002  0.00  0.00    -0.058 A 
ATOM      6  C3  <0> d          -0.019   1.526   0.010  0.00  0.00    -0.058 A 
ATOM      7  H6  <0> d          -0.056  -0.632  -0.899  0.00  0.00     0.034 H 
ATOM      8  H7  <0> d          -0.039  -0.642   0.897  0.00  0.00     0.034 H 
ATOM      9  H4  <0> d          -0.077   2.152   0.912  0.00  0.00     0.034 H 
ATOM     10  H5  <0> d          -0.094   2.162  -0.884  0.00  0.00     0.034 H 
BRANCH   4  11
ATOM     11  C1  <0> d           2.144   0.783   1.280  0.00  0.00    -0.069 C 
ATOM     12  H1  <0> d           3.055   1.381   1.128  0.00  0.00     0.028 H 
ATOM     13  H2  <0> d           2.422  -0.249   1.541  0.00  0.00     0.028 H 
ATOM     14  H3  <0> d           1.551   1.220   2.097  0.00  0.00     0.028 H 
ENDBRANCH   4  11
ENDBRANCH   1   4
BRANCH   1  15
ATOM     15  C6  <0> d           3.413   0.000  -1.121  0.00  0.00    -0.055 C 
ATOM     16  H10 <0> d           4.009   0.454  -0.316  0.00  0.00     0.033 H 
ATOM     17  H11 <0> d           3.168  -1.039  -0.856  0.00  0.00     0.033 H 
BRANCH  15  18
ATOM     18  C7  <0> d           4.216   0.018  -2.423  0.00  0.00     0.016 C 
ATOM     19  H12 <0> d           3.619  -0.435  -3.229  0.00  0.00     0.049 H 
ATOM     20  H13 <0> d           4.461   1.057  -2.689  0.00  0.00     0.049 H 
BRANCH  18  21
ATOM     21  C8  <0> d           5.489  -0.766  -2.239  0.00  0.00     0.172 C 
ATOM     22  O1  <0> d           5.729  -1.287  -1.175  0.00  0.00    -0.648 OA
ATOM     23  O2  <0> d           6.356  -0.887  -3.256  0.00  0.00    -0.648 OA
ENDBRANCH  18  21
ENDBRANCH  15  18
ENDBRANCH   1  15
TORSDOF 5
