REMARK  5 active torsions:
REMARK  status: ('A' for Active; 'I' for Inactive)
REMARK    1  A    between atoms: C1_1  and  C2_2 
REMARK    2  A    between atoms: C2_2  and  C3_3 
REMARK    3  A    between atoms: C2_2  and  C4_4 
REMARK    4  A    between atoms: C2_2  and  C5_5 
REMARK    5  A    between atoms: C10_11  and  O1_13 
ROOT
ATOM      1  C5  <0> d          -0.411   1.556   1.117  0.00  0.00    -0.023 C 
ATOM      2  H1  <0> d          -0.237   2.629   1.038  0.00  0.00     0.045 H 
ATOM      3  C6  <0> d           0.409   0.825   0.052  0.00  0.00    -0.059 C 
ATOM      4  C7  <0> d          -0.013   1.308  -1.337  0.00  0.00    -0.065 C 
ATOM      5  C8  <0> d          -1.499   1.016  -1.549  0.00  0.00    -0.063 C 
ATOM      6  C9  <0> d          -2.320   1.746  -0.483  0.00  0.00    -0.041 C 
ATOM      7  C10 <0> d          -1.898   1.263   0.906  0.00  0.00     0.040 C 
ATOM      8  H2  <0> d          -2.482   1.783   1.664  0.00  0.00     0.083 H 
ATOM      9  H12 <0> d           0.235  -0.248   0.132  0.00  0.00     0.033 H 
ATOM     10  H13 <0> d           1.469   1.034   0.203  0.00  0.00     0.033 H 
ATOM     11  H14 <0> d           0.161   2.382  -1.417  0.00  0.00     0.033 H 
ATOM     12  H15 <0> d           0.572   0.788  -2.096  0.00  0.00     0.033 H 
ATOM     13  H16 <0> d          -1.800   1.360  -2.538  0.00  0.00     0.033 H 
ATOM     14  H17 <0> d          -1.673  -0.057  -1.469  0.00  0.00     0.033 H 
ATOM     15  H18 <0> d          -2.146   2.819  -0.563  0.00  0.00     0.036 H 
ATOM     16  H19 <0> d          -3.379   1.538  -0.634  0.00  0.00     0.036 H 
ENDROOT
BRANCH   1  17
ATOM     17  C2  <0> d           0.011   1.072   2.506  0.00  0.00    -0.045 C 
BRANCH  17  18
ATOM     18  C1  <0> d           1.450   1.512   2.784  0.00  0.00    -0.069 C 
ATOM     19  H3  <0> d           1.512   2.600   2.743  0.00  0.00     0.028 H 
ATOM     20  H4  <0> d           1.751   1.168   3.773  0.00  0.00     0.028 H 
ATOM     21  H5  <0> d           2.113   1.082   2.033  0.00  0.00     0.028 H 
ENDBRANCH  17  18
BRANCH  17  22
ATOM     22  C3  <0> d          -0.919   1.676   3.561  0.00  0.00    -0.069 C 
ATOM     23  H6  <0> d          -1.944   1.362   3.363  0.00  0.00     0.028 H 
ATOM     24  H7  <0> d          -0.618   1.332   4.550  0.00  0.00     0.028 H 
ATOM     25  H8  <0> d          -0.857   2.763   3.520  0.00  0.00     0.028 H 
ENDBRANCH  17  22
BRANCH  17  26
ATOM     26  C4  <0> d          -0.075  -0.454   2.563  0.00  0.00    -0.069 C 
ATOM     27  H9  <0> d           0.459  -0.880   1.714  0.00  0.00     0.028 H 
ATOM     28  H10 <0> d           0.374  -0.809   3.491  0.00  0.00     0.028 H 
ATOM     29  H11 <0> d          -1.121  -0.760   2.526  0.00  0.00     0.028 H 
ENDBRANCH  17  26
ENDBRANCH   1  17
BRANCH   7  30
ATOM     30  O1  <0> d          -2.126  -0.144   1.010  0.00  0.00    -0.395 OA
ATOM     31  H20 <0> d          -3.049  -0.403   0.886  0.00  0.00     0.210 HD
ENDBRANCH   7  30
TORSDOF 5
