REMARK  2 active torsions:
REMARK  status: ('A' for Active; 'I' for Inactive)
REMARK    1  A    between atoms: C1_1  and  C2_2 
REMARK    2  A    between atoms: C4_4  and  C5_8 
ROOT
ATOM      1  C2  <0> d           0.002  -0.004   0.002  0.00  0.00     0.046 A 
ATOM      2  C3  <0> d           1.324  -0.399  -0.013  0.00  0.00     0.094 A 
ATOM      3  C4  <0> d           2.111   0.775  -0.014  0.00  0.00     0.073 A 
ATOM      4  N1  <0> d           1.305   1.801  -0.001  0.00  0.00    -0.178 NA
ATOM      5  N2  <0> d          -0.016   1.340   0.009  0.00  0.00    -0.281 N 
ATOM      6  H1  <0> d          -0.835   1.913   0.020  0.00  0.00     0.189 HD
ATOM      7  C6  <0> d           1.809  -1.746  -0.025  0.00  0.00     0.103 C 
ATOM      8  N3  <0> d           2.193  -2.815  -0.035  0.00  0.00    -0.191 NA
ENDROOT
BRANCH   1   9
ATOM      9  C1  <0> d          -1.200  -0.913   0.009  0.00  0.00    -0.035 C 
ATOM     10  H2  <0> d          -1.500  -1.127  -1.016  0.00  0.00     0.035 H 
ATOM     11  H3  <0> d          -0.949  -1.844   0.516  0.00  0.00     0.035 H 
ATOM     12  H4  <0> d          -2.022  -0.424   0.534  0.00  0.00     0.035 H 
ENDBRANCH   1   9
BRANCH   3  13
ATOM     13  C5  <0> d           3.616   0.832  -0.029  0.00  0.00    -0.032 C 
ATOM     14  H5  <0> d           3.969   0.851  -1.060  0.00  0.00     0.035 H 
ATOM     15  H6  <0> d           3.951   1.732   0.487  0.00  0.00     0.035 H 
ATOM     16  H7  <0> d           4.018  -0.047   0.477  0.00  0.00     0.035 H 
ENDBRANCH   3  13
TORSDOF 2
