REMARK  3 active torsions:
REMARK  status: ('A' for Active; 'I' for Inactive)
REMARK    1  A    between atoms: C1_1  and  N1_2 
REMARK    2  A    between atoms: N1_2  and  C2_3 
REMARK    3  A    between atoms: C6_7  and  N2_9 
ROOT
ATOM      1  C2  <0> d          -0.049   3.847   0.022  0.00  0.00     0.029 A 
ATOM      2  C3  <0> d           1.161   3.163   0.007  0.00  0.00    -0.057 A 
ATOM      3  C4  <0> d           1.175   1.782   0.000  0.00  0.00    -0.079 A 
ATOM      4  C5  <0> d          -0.013   1.076   0.008  0.00  0.00    -0.058 A 
ATOM      5  C6  <0> d          -1.226   1.753   0.017  0.00  0.00     0.027 A 
ATOM      6  C7  <0> d          -1.244   3.141   0.030  0.00  0.00    -0.032 A 
ATOM      7  H5  <0> d           2.091   3.712   0.000  0.00  0.00     0.086 H 
ATOM      8  H6  <0> d           2.116   1.253  -0.011  0.00  0.00     0.083 H 
ATOM      9  H7  <0> d           0.002  -0.004   0.002  0.00  0.00     0.086 H 
ATOM     10  H8  <0> d          -2.185   3.670   0.042  0.00  0.00     0.090 H 
ENDROOT
BRANCH   1  11
ATOM     11  N1  <0> d          -0.063   5.244   0.029  0.00  0.00    -0.394 N 
ATOM     12  H4  <0> d          -0.907   5.721   0.039  0.00  0.00     0.159 HD
BRANCH  11  13
ATOM     13  C1  <0> d           1.199   5.989   0.021  0.00  0.00    -0.021 C 
ATOM     14  H1  <0> d           1.764   5.736  -0.876  0.00  0.00     0.056 H 
ATOM     15  H2  <0> d           0.989   7.058   0.028  0.00  0.00     0.056 H 
ATOM     16  H3  <0> d           1.781   5.727   0.904  0.00  0.00     0.056 H 
ENDBRANCH  11  13
ENDBRANCH   1  11
BRANCH   5  17
ATOM     17  N2  <0> d          -2.426   1.039   0.019  0.00  0.00    -0.399 N 
ATOM     18  H9  <0> d          -2.413   0.069   0.014  0.00  0.00     0.156 HD
ATOM     19  H10 <0> d          -3.272   1.512   0.026  0.00  0.00     0.156 HD
ENDBRANCH   5  17
TORSDOF 3
