REMARK  4 active torsions:
REMARK  status: ('A' for Active; 'I' for Inactive)
REMARK    1  A    between atoms: C1_1  and  C2_2 
REMARK    2  A    between atoms: C2_2  and  O1_3 
REMARK    3  A    between atoms: O1_3  and  C3_4 
REMARK    4  A    between atoms: C3_4  and  C4_5 
ROOT
ATOM      1  C3  <0> d           0.776  -1.800  -1.335  0.00  0.00     0.298 C 
ATOM      2  O4  <0> d           0.312  -2.552  -0.499  0.00  0.00    -0.259 OA
ENDROOT
BRANCH   1   3
ATOM      3  O1  <0> d           0.671  -0.465  -1.174  0.00  0.00    -0.318 OA
BRANCH   3   4
ATOM      4  C2  <0> d           0.002  -0.004   0.002  0.00  0.00     0.026 C 
ATOM      5  H4  <0> d           0.529  -0.365   0.885  0.00  0.00     0.074 H 
ATOM      6  H5  <0> d          -1.020  -0.381   0.010  0.00  0.00     0.074 H 
BRANCH   4   7
ATOM      7  C1  <0> d          -0.019   1.526   0.010  0.00  0.00    -0.056 C 
ATOM      8  H1  <0> d           1.004   1.903   0.003  0.00  0.00     0.030 H 
ATOM      9  H2  <0> d          -0.546   1.887  -0.873  0.00  0.00     0.030 H 
ATOM     10  H3  <0> d          -0.529   1.877   0.907  0.00  0.00     0.030 H 
ENDBRANCH   4   7
ENDBRANCH   3   4
ENDBRANCH   1   3
BRANCH   1  11
ATOM     11  C4  <0> d           1.449  -2.344  -2.517  0.00  0.00     0.102 A 
ATOM     12  C7  <0> d           1.643  -3.679  -2.834  0.00  0.00     0.236 A 
ATOM     13  O2  <0> d           2.297  -3.737  -3.999  0.00  0.00    -0.297 OA
ATOM     14  O3  <0> d           1.238  -4.738  -2.096  0.00  0.00    -0.163 OA
ATOM     15  C6  <0> d           2.557  -2.503  -4.468  0.00  0.00     0.023 A 
ATOM     16  C5  <0> d           2.070  -1.589  -3.619  0.00  0.00    -0.041 A 
ATOM     17  H7  <0> d           3.078  -2.283  -5.388  0.00  0.00     0.123 H 
ATOM     18  H6  <0> d           2.123  -0.515  -3.721  0.00  0.00     0.088 H 
ENDBRANCH   1  11
TORSDOF 4
