REMARK  0 active torsions:
REMARK  status: ('A' for Active; 'I' for Inactive)
ROOT
ATOM      1  C1  <0> d           1.169  -0.707  -0.013  0.00  0.00    -0.036 A 
ATOM      2  C2  <0> d           0.002  -0.004   0.002  0.00  0.00     0.004 A 
ATOM      3  N1  <0> d          -0.016   1.321   0.009  0.00  0.00    -0.271 NA
ATOM      4  C3  <0> d           1.078   2.046   0.003  0.00  0.00     0.032 A 
ATOM      5  C4  <0> d           2.336   1.418  -0.013  0.00  0.00     0.102 A 
ATOM      6  C5  <0> d           2.385  -0.000  -0.021  0.00  0.00     0.088 A 
ATOM      7  N2  <0> d           3.566  -0.623  -0.037  0.00  0.00    -0.257 NA
ATOM      8  C6  <0> d           4.672   0.087  -0.043  0.00  0.00     0.020 A 
ATOM      9  C7  <0> d           4.624   1.484  -0.035  0.00  0.00     0.020 A 
ATOM     10  N3  <0> d           3.473   2.117  -0.020  0.00  0.00    -0.256 NA
ATOM     11  H1  <0> d           1.160  -1.787  -0.019  0.00  0.00     0.089 H 
ATOM     12  H2  <0> d          -0.935  -0.542   0.008  0.00  0.00     0.114 H 
ATOM     13  H3  <0> d           1.012   3.124   0.009  0.00  0.00     0.118 H 
ATOM     14  H4  <0> d           5.628  -0.415  -0.055  0.00  0.00     0.117 H 
ATOM     15  H5  <0> d           5.544   2.049  -0.042  0.00  0.00     0.117 H 
ENDROOT
TORSDOF 0
