REMARK  2 active torsions:
REMARK  status: ('A' for Active; 'I' for Inactive)
REMARK    1  A    between atoms: C2_4  and  C3_6 
REMARK    2  A    between atoms: C3_6  and  C4_7 
ROOT
ATOM      1  C3  <0> d          -0.018   1.503   0.010  0.00  0.00     0.061 C 
ATOM      2  H2  <0> d          -0.545   1.864  -0.873  0.00  0.00     0.058 H 
ATOM      3  H3  <0> d          -0.529   1.854   0.907  0.00  0.00     0.058 H 
ENDROOT
BRANCH   1   4
ATOM      4  C2  <0> d           0.002  -0.004   0.002  0.00  0.00     0.176 A 
ATOM      5  N2  <0> d           0.022  -0.780   1.048  0.00  0.00    -0.127 NA
ATOM      6  N1  <0> d           0.035  -2.010   0.667  0.00  0.00    -0.136 NA
ATOM      7  C1  <0> d           0.024  -2.059  -0.635  0.00  0.00     0.126 A 
ATOM      8  O1  <0> d          -0.003  -0.793  -1.085  0.00  0.00    -0.285 OA
ATOM      9  H1  <0> d           0.030  -2.953  -1.240  0.00  0.00     0.158 H 
ENDBRANCH   1   4
BRANCH   1  10
ATOM     10  C4  <0> d           1.395   2.024  -0.000  0.00  0.00     0.176 A 
ATOM     11  O2  <0> d           2.150   2.299   1.077  0.00  0.00    -0.285 OA
ATOM     12  C5  <0> d           3.332   2.734   0.610  0.00  0.00     0.126 A 
ATOM     13  N4  <0> d           3.267   2.722  -0.691  0.00  0.00    -0.136 NA
ATOM     14  H4  <0> d           4.180   3.042   1.205  0.00  0.00     0.158 H 
ATOM     15  N3  <0> d           2.108   2.297  -1.056  0.00  0.00    -0.127 NA
ENDBRANCH   1  10
TORSDOF 2
