REMARK  2 active torsions:
REMARK  status: ('A' for Active; 'I' for Inactive)
REMARK    1  A    between atoms: C1_1  and  C2_2 
REMARK    2  A    between atoms: C5_5  and  C6_7 
ROOT
ATOM      1  C2  <0> d           0.002  -0.004   0.002  0.00  0.00     0.049 A 
ATOM      2  C3  <0> d          -1.078  -0.805   0.003  0.00  0.00    -0.052 A 
ATOM      3  C4  <0> d          -0.601  -2.136  -0.007  0.00  0.00    -0.052 A 
ATOM      4  C5  <0> d           0.742  -2.069  -0.013  0.00  0.00     0.049 A 
ATOM      5  O1  <0> d           1.102  -0.775  -0.013  0.00  0.00    -0.320 OA
ATOM      6  H4  <0> d          -2.112  -0.492   0.010  0.00  0.00     0.087 H 
ATOM      7  H5  <0> d          -1.200  -3.035  -0.009  0.00  0.00     0.087 H 
ENDROOT
BRANCH   1   8
ATOM      8  C1  <0> d          -0.018   1.503   0.010  0.00  0.00    -0.031 C 
ATOM      9  H1  <0> d           1.004   1.880   0.003  0.00  0.00     0.036 H 
ATOM     10  H2  <0> d          -0.545   1.864  -0.873  0.00  0.00     0.036 H 
ATOM     11  H3  <0> d          -0.529   1.854   0.907  0.00  0.00     0.036 H 
ENDBRANCH   1   8
BRANCH   4  12
ATOM     12  C6  <0> d           1.684  -3.245  -0.024  0.00  0.00    -0.031 C 
ATOM     13  H6  <0> d           1.906  -3.523  -1.054  0.00  0.00     0.036 H 
ATOM     14  H7  <0> d           2.608  -2.975   0.487  0.00  0.00     0.036 H 
ATOM     15  H8  <0> d           1.219  -4.088   0.487  0.00  0.00     0.036 H 
ENDBRANCH   4  12
TORSDOF 2
