REMARK  4 active torsions:
REMARK  status: ('A' for Active; 'I' for Inactive)
REMARK    1  A    between atoms: C1_1  and  C2_2 
REMARK    2  A    between atoms: C2_2  and  C3_3 
REMARK    3  A    between atoms: C3_3  and  O1_4 
REMARK    4  A    between atoms: O1_4  and  C4_5 
REMARK       I    between atoms: C4_5  and  N1_7 
ROOT
ATOM      1  C3  <0> d          -2.508   3.611   0.034  0.00  0.00     0.030 C 
ATOM      2  H6  <0> d          -3.065   3.316  -0.855  0.00  0.00     0.075 H 
ATOM      3  H7  <0> d          -3.057   3.306   0.924  0.00  0.00     0.075 H 
ENDROOT
BRANCH   1   4
ATOM      4  C2  <0> d          -2.328   5.131   0.041  0.00  0.00    -0.048 C 
ATOM      5  H4  <0> d          -1.771   5.426   0.930  0.00  0.00     0.035 H 
ATOM      6  H5  <0> d          -1.780   5.436  -0.850  0.00  0.00     0.035 H 
BRANCH   4   7
ATOM      7  C1  <0> d          -3.701   5.807   0.051  0.00  0.00    -0.075 C 
ATOM      8  H1  <0> d          -3.573   6.889   0.056  0.00  0.00     0.027 H 
ATOM      9  H2  <0> d          -4.258   5.511  -0.838  0.00  0.00     0.027 H 
ATOM     10  H3  <0> d          -4.250   5.502   0.942  0.00  0.00     0.027 H 
ENDBRANCH   4   7
ENDBRANCH   1   4
BRANCH   1  11
ATOM     11  O1  <0> d          -1.206   2.970   0.024  0.00  0.00    -0.304 OA
BRANCH  11  12
ATOM     12  C4  <0> d          -1.187   1.624   0.017  0.00  0.00     0.358 C 
ATOM     13  O2  <0> d          -2.231   1.002   0.018  0.00  0.00    -0.239 OA
ATOM     14  N1  <0> d          -0.011   0.966   0.007  0.00  0.00    -0.346 N 
ATOM     15  H8  <0> d           0.002  -0.004   0.002  0.00  0.00     0.161 HD
ATOM     16  H9  <0> d           0.822   1.462   0.002  0.00  0.00     0.161 HD
ENDBRANCH  11  12
ENDBRANCH   1  11
TORSDOF 4
