REMARK  3 active torsions:
REMARK  status: ('A' for Active; 'I' for Inactive)
REMARK    1  A    between atoms: C1_1  and  S1_2 
REMARK    2  A    between atoms: S1_2  and  C2_4 
REMARK    3  A    between atoms: C7_9  and  O2_10 
ROOT
ATOM      1  C2  <0> d          -0.610   1.826   1.618  0.00  0.00     0.064 A 
ATOM      2  C3  <0> d          -1.325   2.992   1.815  0.00  0.00    -0.062 A 
ATOM      3  C4  <0> d          -1.791   3.314   3.076  0.00  0.00    -0.081 A 
ATOM      4  C5  <0> d          -1.543   2.470   4.143  0.00  0.00    -0.080 A 
ATOM      5  C6  <0> d          -0.830   1.303   3.951  0.00  0.00    -0.050 A 
ATOM      6  C7  <0> d          -0.365   0.976   2.686  0.00  0.00     0.084 A 
ATOM      7  H4  <0> d          -1.520   3.653   0.983  0.00  0.00     0.085 H 
ATOM      8  H5  <0> d          -2.349   4.226   3.228  0.00  0.00     0.083 H 
ATOM      9  H6  <0> d          -1.908   2.724   5.128  0.00  0.00     0.083 H 
ATOM     10  H7  <0> d          -0.637   0.644   4.785  0.00  0.00     0.087 H 
ENDROOT
BRANCH   1  11
ATOM     11  S1  <0> d          -0.017   1.417   0.010  0.00  0.00     0.048 S 
ATOM     12  O1  <0> d           0.002  -0.004   0.002  0.00  0.00    -0.253 OA
BRANCH  11  13
ATOM     13  C1  <0> d           1.685   2.045  -0.003  0.00  0.00    -0.003 C 
ATOM     14  H1  <0> d           2.142   1.836  -0.970  0.00  0.00     0.045 H 
ATOM     15  H2  <0> d           1.676   3.121   0.170  0.00  0.00     0.045 H 
ATOM     16  H3  <0> d           2.259   1.555   0.783  0.00  0.00     0.045 H 
ENDBRANCH  11  13
ENDBRANCH   1  11
BRANCH   6  17
ATOM     17  O2  <0> d           0.333  -0.175   2.493  0.00  0.00    -0.359 OA
ATOM     18  H8  <0> d           1.288  -0.078   2.606  0.00  0.00     0.217 HD
ENDBRANCH   6  17
TORSDOF 3
