REMARK  0 active torsions:
REMARK  status: ('A' for Active; 'I' for Inactive)
ROOT
ATOM      1  C1  <0> d           0.002  -0.004   0.002  0.00  0.00    -0.080 A 
ATOM      2  C2  <0> d           1.203  -0.682  -0.013  0.00  0.00    -0.060 A 
ATOM      3  C3  <0> d           2.404   0.030  -0.021  0.00  0.00     0.084 A 
ATOM      4  C4  <0> d           2.380   1.428  -0.013  0.00  0.00     0.158 A 
ATOM      5  C5  <0> d           1.168   2.095   0.002  0.00  0.00     0.074 A 
ATOM      6  C6  <0> d          -0.017   1.380   0.010  0.00  0.00    -0.059 A 
ATOM      7 Cl1  <0> d           1.133   3.830   0.011  0.00  0.00    -0.081 Cl
ATOM      8  F1  <0> d           3.537   2.126  -0.020  0.00  0.00    -0.203 F 
ATOM      9  C7  <0> d           3.655  -0.668  -0.036  0.00  0.00     0.102 C 
ATOM     10  N1  <0> d           4.646  -1.222  -0.048  0.00  0.00    -0.191 NA
ATOM     11  H1  <0> d          -0.927  -0.555   0.008  0.00  0.00     0.083 H 
ATOM     12  H2  <0> d           1.214  -1.762  -0.019  0.00  0.00     0.086 H 
ATOM     13  H3  <0> d          -0.961   1.904   0.017  0.00  0.00     0.086 H 
ENDROOT
TORSDOF 0
