REMARK  1 active torsions:
REMARK  status: ('A' for Active; 'I' for Inactive)
REMARK    1  A    between atoms: C1_1  and  C2_2 
ROOT
ATOM      1  C2  <0> d           0.002  -0.004   0.002  0.00  0.00    -0.040 A 
ATOM      2  C3  <0> d           0.006  -0.688  -1.199  0.00  0.00    -0.073 A 
ATOM      3  C4  <0> d           0.025  -2.070  -1.208  0.00  0.00    -0.045 A 
ATOM      4  C5  <0> d           0.040  -2.770  -0.013  0.00  0.00     0.118 A 
ATOM      5  C6  <0> d           0.036  -2.085   1.189  0.00  0.00    -0.024 A 
ATOM      6  C7  <0> d           0.023  -0.702   1.196  0.00  0.00     0.043 A 
ATOM      7 Cl1  <0> d           0.025   0.159   2.704  0.00  0.00    -0.084 Cl
ATOM      8  F1  <0> d           0.057  -4.121  -0.022  0.00  0.00    -0.206 F 
ATOM      9  H4  <0> d          -0.006  -0.143  -2.131  0.00  0.00     0.084 H 
ATOM     10  H5  <0> d           0.027  -2.604  -2.147  0.00  0.00     0.088 H 
ATOM     11  H6  <0> d           0.048  -2.630   2.122  0.00  0.00     0.090 H 
ENDROOT
BRANCH   1  12
ATOM     12  C1  <0> d          -0.018   1.503   0.010  0.00  0.00    -0.050 C 
ATOM     13  H1  <0> d           1.004   1.880   0.003  0.00  0.00     0.033 H 
ATOM     14  H2  <0> d          -0.545   1.864  -0.873  0.00  0.00     0.033 H 
ATOM     15  H3  <0> d          -0.529   1.854   0.907  0.00  0.00     0.033 H 
ENDBRANCH   1  12
TORSDOF 1
