REMARK  0 active torsions:
REMARK  status: ('A' for Active; 'I' for Inactive)
ROOT
ATOM      1  C1  <0> d           3.134   2.404   1.179  0.00  0.00    -0.036 A 
ATOM      2  C2  <0> d           3.700   2.677  -0.055  0.00  0.00     0.051 A 
ATOM      3  C3  <0> d           3.001   2.365  -1.208  0.00  0.00     0.000 A 
ATOM      4  N1  <0> d           1.804   1.812  -1.153  0.00  0.00    -0.342 N 
ATOM      5  C4  <0> d           1.219   1.531  -0.001  0.00  0.00     0.199 A 
ATOM      6  C5  <0> d           1.861   1.822   1.212  0.00  0.00     0.100 A 
ATOM      7  C6  <0> d           1.228   1.523   2.462  0.00  0.00     0.104 C 
ATOM      8  N2  <0> d           0.726   1.287   3.453  0.00  0.00    -0.191 NA
ATOM      9  O1  <0> d          -0.011   0.963   0.007  0.00  0.00    -0.171 OA
ATOM     10 Cl1  <0> d           5.272   3.405  -0.154  0.00  0.00    -0.083 Cl
ATOM     11  H1  <0> d           3.659   2.638   2.093  0.00  0.00     0.088 H 
ATOM     12  H2  <0> d           3.443   2.578  -2.170  0.00  0.00     0.114 H 
ATOM     13  H3  <0> d           1.266   1.572  -2.081  0.00  0.00     0.167 HD
ENDROOT
TORSDOF 0
