REMARK  0 active torsions:
REMARK  status: ('A' for Active; 'I' for Inactive)
ROOT
ATOM      1  C1  <0> d           1.160   3.299   0.009  0.00  0.00    -0.039 A 
ATOM      2  C2  <0> d           1.193   1.935   0.001  0.00  0.00    -0.015 A 
ATOM      3  C3  <0> d          -0.015   1.217   0.009  0.00  0.00     0.245 A 
ATOM      4  O1  <0> d           0.002  -0.004   0.002  0.00  0.00    -0.268 OA
ATOM      5  N1  <0> d          -1.190   1.873   0.018  0.00  0.00    -0.331 N 
ATOM      6  H1  <0> d          -2.135   1.310   0.015  0.00  0.00     0.168 HD
ATOM      7  C4  <0> d          -1.227   3.232   0.031  0.00  0.00     0.017 A 
ATOM      8  C5  <0> d          -0.081   3.954   0.024  0.00  0.00     0.132 A 
ATOM      9  F1  <0> d          -0.132   5.304   0.031  0.00  0.00    -0.205 F 
ATOM     10  H2  <0> d           2.078   3.867   0.003  0.00  0.00     0.088 H 
ATOM     11  H3  <0> d           2.138   1.413  -0.010  0.00  0.00     0.092 H 
ATOM     12  H4  <0> d          -2.180   3.740   0.043  0.00  0.00     0.116 H 
ENDROOT
TORSDOF 0
