REMARK  5 active torsions:
REMARK  status: ('A' for Active; 'I' for Inactive)
REMARK    1  A    between atoms: C1_1  and  C2_2 
REMARK    2  A    between atoms: C2_2  and  C3_3 
REMARK    3  A    between atoms: C3_3  and  C4_5 
REMARK    4  A    between atoms: C3_3  and  O2_7 
REMARK    5  A    between atoms: C4_5  and  O1_6 
ROOT
ATOM      1  C3  <0> d          -0.729   1.579   1.267  0.00  0.00     0.055 C 
ATOM      2  H1  <0> d          -0.822   2.665   1.230  0.00  0.00     0.086 H 
ENDROOT
BRANCH   1   3
ATOM      3  C2  <0> d           0.079   1.179   2.503  0.00  0.00    -0.043 C 
ATOM      4  H5  <0> d           0.097   0.092   2.589  0.00  0.00     0.036 H 
ATOM      5  H6  <0> d           1.098   1.553   2.408  0.00  0.00     0.036 H 
BRANCH   3   6
ATOM      6  C1  <0> d          -0.570   1.778   3.752  0.00  0.00    -0.074 C 
ATOM      7  H2  <0> d          -0.588   2.864   3.667  0.00  0.00     0.027 H 
ATOM      8  H3  <0> d          -1.590   1.404   3.847  0.00  0.00     0.027 H 
ATOM      9  H4  <0> d           0.005   1.492   4.633  0.00  0.00     0.027 H 
ENDBRANCH   3   6
ENDBRANCH   1   3
BRANCH   1  10
ATOM     10  C4  <0> d          -0.013   1.086   0.008  0.00  0.00     0.040 C 
ATOM     11  H7  <0> d           0.002  -0.004   0.002  0.00  0.00     0.077 H 
ATOM     12  H8  <0> d           1.010   1.463   0.000  0.00  0.00     0.077 H 
BRANCH  10  13
ATOM     13  O1  <0> d          -0.704   1.559  -1.150  0.00  0.00    -0.398 OA
ATOM     14  H9  <0> d          -0.304   1.284  -1.986  0.00  0.00     0.209 HD
ENDBRANCH  10  13
ENDBRANCH   1  10
BRANCH   1  15
ATOM     15  O2  <0> d          -2.030   0.991   1.336  0.00  0.00    -0.393 OA
ATOM     16  H10 <0> d          -2.023   0.025   1.372  0.00  0.00     0.210 HD
ENDBRANCH   1  15
TORSDOF 5
