REMARK  1 active torsions:
REMARK  status: ('A' for Active; 'I' for Inactive)
REMARK    1  A    between atoms: C3_3  and  O1_8 
ROOT
ATOM      1  C1  <0> d           1.194   2.061   0.002  0.00  0.00    -0.063 A 
ATOM      2  C2  <0> d          -0.017   1.385   0.010  0.00  0.00    -0.045 A 
ATOM      3  C3  <0> d           0.002  -0.004   0.002  0.00  0.00     0.123 A 
ATOM      4  C4  <0> d           1.227  -0.662  -0.013  0.00  0.00     0.242 A 
ATOM      5  N1  <0> d           2.357   0.019  -0.020  0.00  0.00    -0.231 NA
ATOM      6  C5  <0> d           2.371   1.339  -0.013  0.00  0.00     0.005 A 
ATOM      7  F1  <0> d           1.260  -2.013  -0.020  0.00  0.00    -0.181 F 
ATOM      8  H1  <0> d           1.216   3.141   0.007  0.00  0.00     0.085 H 
ATOM      9  H2  <0> d          -0.952   1.925   0.017  0.00  0.00     0.088 H 
ATOM     10  H3  <0> d           3.316   1.861  -0.020  0.00  0.00     0.114 H 
ENDROOT
BRANCH   3  11
ATOM     11  O1  <0> d          -1.160  -0.710   0.010  0.00  0.00    -0.356 OA
ATOM     12  H4  <0> d          -1.505  -0.909  -0.871  0.00  0.00     0.218 HD
ENDBRANCH   3  11
TORSDOF 1
