REMARK  4 active torsions:
REMARK  status: ('A' for Active; 'I' for Inactive)
REMARK    1  A    between atoms: C1_1  and  C2_2 
REMARK    2  A    between atoms: C2_2  and  N1_3 
REMARK    3  A    between atoms: N1_3  and  C3_4 
REMARK    4  A    between atoms: C6_7  and  C9_10 
ROOT
ATOM      1  C3  <0> d          -1.230   1.648   0.017  0.00  0.00     0.027 A 
ATOM      2  C4  <0> d          -1.251   3.037   0.030  0.00  0.00    -0.057 A 
ATOM      3  C5  <0> d          -2.458   3.708   0.035  0.00  0.00    -0.075 A 
ATOM      4  C6  <0> d          -3.645   2.998   0.037  0.00  0.00    -0.062 A 
ATOM      5  C7  <0> d          -3.628   1.616   0.029  0.00  0.00    -0.075 A 
ATOM      6  C8  <0> d          -2.424   0.938   0.019  0.00  0.00    -0.057 A 
ATOM      7  H7  <0> d          -0.324   3.591   0.033  0.00  0.00     0.086 H 
ATOM      8  H8  <0> d          -2.474   4.787   0.041  0.00  0.00     0.084 H 
ATOM      9  H9  <0> d          -4.557   1.065   0.030  0.00  0.00     0.084 H 
ATOM     10  H10 <0> d          -2.412  -0.141   0.012  0.00  0.00     0.086 H 
ENDROOT
BRANCH   1  11
ATOM     11  N1  <0> d          -0.011   0.966   0.007  0.00  0.00    -0.390 N 
ATOM     12  H6  <0> d           0.002  -0.004   0.002  0.00  0.00     0.159 HD
BRANCH  11  13
ATOM     13  C2  <0> d           1.248   1.716  -0.001  0.00  0.00    -0.011 C 
ATOM     14  H4  <0> d           1.288   2.348  -0.888  0.00  0.00     0.063 H 
ATOM     15  H5  <0> d           1.305   2.338   0.892  0.00  0.00     0.063 H 
BRANCH  13  16
ATOM     16  C1  <0> d           2.424   0.737  -0.017  0.00  0.00    -0.061 C 
ATOM     17  H1  <0> d           2.366   0.115  -0.910  0.00  0.00     0.029 H 
ATOM     18  H2  <0> d           3.360   1.295  -0.023  0.00  0.00     0.029 H 
ATOM     19  H3  <0> d           2.383   0.105   0.870  0.00  0.00     0.029 H 
ENDBRANCH  13  16
ENDBRANCH  11  13
ENDBRANCH   1  11
BRANCH   4  20
ATOM     20  C9  <0> d          -4.960   3.734   0.047  0.00  0.00    -0.051 C 
ATOM     21  H11 <0> d          -5.272   3.906   1.077  0.00  0.00     0.033 H 
ATOM     22  H12 <0> d          -4.845   4.691  -0.462  0.00  0.00     0.033 H 
ATOM     23  H13 <0> d          -5.714   3.138  -0.467  0.00  0.00     0.033 H 
ENDBRANCH   4  20
TORSDOF 4
