REMARK  3 active torsions:
REMARK  status: ('A' for Active; 'I' for Inactive)
REMARK    1  A    between atoms: C1_1  and  C2_2 
REMARK    2  A    between atoms: C4_4  and  C8_10 
REMARK    3  A    between atoms: C6_6  and  O1_8 
ROOT
ATOM      1  C2  <0> d          -0.018   1.503   0.010  0.00  0.00    -0.059 A 
ATOM      2  C3  <0> d          -1.226   2.177   0.020  0.00  0.00    -0.070 A 
ATOM      3  C4  <0> d          -1.248   3.559   0.033  0.00  0.00    -0.037 A 
ATOM      4  C5  <0> d          -0.063   4.271   0.026  0.00  0.00     0.073 A 
ATOM      5  C6  <0> d           1.150   3.596   0.010  0.00  0.00     0.088 A 
ATOM      6  C7  <0> d           1.169   2.209   0.003  0.00  0.00    -0.044 A 
ATOM      7 Cl1  <0> d          -0.091   6.007   0.035  0.00  0.00    -0.081 Cl
ATOM      8  H4  <0> d          -2.152   1.623   0.021  0.00  0.00     0.085 H 
ATOM      9  H5  <0> d           2.111   1.681  -0.009  0.00  0.00     0.088 H 
ENDROOT
BRANCH   1  10
ATOM     10  C1  <0> d           0.002  -0.004   0.002  0.00  0.00    -0.051 C 
ATOM     11  H1  <0> d           0.017  -0.373   1.028  0.00  0.00     0.033 H 
ATOM     12  H2  <0> d          -0.888  -0.377  -0.505  0.00  0.00     0.033 H 
ATOM     13  H3  <0> d           0.892  -0.352  -0.522  0.00  0.00     0.033 H 
ENDBRANCH   1  10
BRANCH   5  14
ATOM     14  O1  <0> d           2.317   4.293   0.003  0.00  0.00    -0.359 OA
ATOM     15  H6  <0> d           2.647   4.499  -0.882  0.00  0.00     0.217 HD
ENDBRANCH   5  14
BRANCH   3  16
ATOM     16  C8  <0> d          -2.566   4.291   0.049  0.00  0.00    -0.050 C 
ATOM     17  H7  <0> d          -2.893   4.472  -0.975  0.00  0.00     0.033 H 
ATOM     18  H8  <0> d          -3.310   3.687   0.567  0.00  0.00     0.033 H 
ATOM     19  H9  <0> d          -2.446   5.243   0.567  0.00  0.00     0.033 H 
ENDBRANCH   3  16
TORSDOF 3
