REMARK  6 active torsions:
REMARK  status: ('A' for Active; 'I' for Inactive)
REMARK    1  A    between atoms: C1_1  and  C2_2 
REMARK    2  A    between atoms: C2_2  and  C3_3 
REMARK    3  A    between atoms: C3_3  and  C4_5 
REMARK    4  A    between atoms: C4_5  and  C5_6 
REMARK    5  A    between atoms: C4_5  and  C6_7 
REMARK    6  A    between atoms: C4_5  and  C7_8 
ROOT
ATOM      1  C4  <0> d           1.280   1.975   0.000  0.00  0.00     0.009 C 
ENDROOT
BRANCH   1   2
ATOM      2  C3  <0> d          -0.014   1.203   0.009  0.00  0.00     0.134 C 
ATOM      3  O1  <0> d           0.002  -0.004   0.002  0.00  0.00    -0.297 OA
BRANCH   2   4
ATOM      4  C2  <0> d          -1.329   1.939   0.019  0.00  0.00    -0.012 C 
ATOM      5  H4  <0> d          -1.386   2.509   0.839  0.00  0.00     0.043 H 
ATOM      6  H5  <0> d          -1.400   2.570  -0.867  0.00  0.00     0.043 H 
BRANCH   4   7
ATOM      7  C1  <0> d          -2.479   0.929   0.019  0.00  0.00    -0.070 C 
ATOM      8  H1  <0> d          -2.417   0.308  -0.875  0.00  0.00     0.028 H 
ATOM      9  H2  <0> d          -2.408   0.298   0.905  0.00  0.00     0.028 H 
ATOM     10  H3  <0> d          -3.430   1.461   0.026  0.00  0.00     0.028 H 
ENDBRANCH   4   7
ENDBRANCH   2   4
ENDBRANCH   1   2
BRANCH   1  11
ATOM     11  C5  <0> d           2.457   0.996  -0.016  0.00  0.00    -0.063 C 
ATOM     12  H6  <0> d           2.399   0.374  -0.909  0.00  0.00     0.029 H 
ATOM     13  H7  <0> d           3.393   1.554  -0.022  0.00  0.00     0.029 H 
ATOM     14  H8  <0> d           2.416   0.364   0.871  0.00  0.00     0.029 H 
ENDBRANCH   1  11
BRANCH   1  15
ATOM     15  C6  <0> d           1.338   2.862  -1.245  0.00  0.00    -0.063 C 
ATOM     16  H9  <0> d           0.500   3.559  -1.233  0.00  0.00     0.029 H 
ATOM     17  H10 <0> d           2.274   3.420  -1.251  0.00  0.00     0.029 H 
ATOM     18  H11 <0> d           1.280   2.239  -2.138  0.00  0.00     0.029 H 
ENDBRANCH   1  15
BRANCH   1  19
ATOM     19  C7  <0> d           1.361   2.849   1.254  0.00  0.00    -0.063 C 
ATOM     20  H12 <0> d           1.321   2.216   2.141  0.00  0.00     0.029 H 
ATOM     21  H13 <0> d           2.298   3.406   1.248  0.00  0.00     0.029 H 
ATOM     22  H14 <0> d           0.523   3.546   1.265  0.00  0.00     0.029 H 
ENDBRANCH   1  19
TORSDOF 6
