REMARK  4 active torsions:
REMARK  status: ('A' for Active; 'I' for Inactive)
REMARK    1  A    between atoms: C1_1  and  C2_2 
REMARK    2  A    between atoms: C2_2  and  C3_3 
REMARK    3  A    between atoms: C3_3  and  C4_4 
REMARK    4  A    between atoms: C4_4  and  C5_5 
ROOT
ATOM      1  C5  <0> d           1.444  -2.513  -2.505  0.00  0.00    -0.060 C 
ATOM      2  C6  <0> d           2.709  -2.803  -2.428  0.00  0.00    -0.097 C 
ATOM      3  C7  <0> d           3.502  -3.285  -3.611  0.00  0.00    -0.030 C 
ATOM      4  C8  <0> d           2.547  -3.759  -4.710  0.00  0.00     0.023 C 
ATOM      5  O1  <0> d           1.538  -2.758  -4.894  0.00  0.00    -0.387 OA
ATOM      6  C9  <0> d           0.653  -2.648  -3.775  0.00  0.00     0.040 C 
ATOM      7  H10 <0> d           3.210  -2.692  -1.477  0.00  0.00     0.077 H 
ATOM      8  H11 <0> d           4.118  -2.471  -3.991  0.00  0.00     0.042 H 
ATOM      9  H12 <0> d           4.143  -4.113  -3.305  0.00  0.00     0.042 H 
ATOM     10  H13 <0> d           3.098  -3.900  -5.640  0.00  0.00     0.074 H 
ATOM     11  H14 <0> d           2.082  -4.699  -4.412  0.00  0.00     0.074 H 
ATOM     12  H15 <0> d           0.026  -3.537  -3.717  0.00  0.00     0.081 H 
ATOM     13  H16 <0> d           0.021  -1.769  -3.902  0.00  0.00     0.081 H 
ENDROOT
BRANCH   1  14
ATOM     14  C4  <0> d           0.739  -2.027  -1.265  0.00  0.00    -0.043 C 
ATOM     15  H8  <0> d           1.266  -2.388  -0.382  0.00  0.00     0.039 H 
ATOM     16  H9  <0> d          -0.284  -2.405  -1.258  0.00  0.00     0.039 H 
BRANCH  14  17
ATOM     17  C3  <0> d           0.718  -0.497  -1.257  0.00  0.00    -0.062 C 
ATOM     18  H6  <0> d           0.191  -0.136  -2.140  0.00  0.00     0.033 H 
ATOM     19  H7  <0> d           1.741  -0.120  -1.264  0.00  0.00     0.033 H 
BRANCH  17  20
ATOM     20  C2  <0> d           0.002  -0.004   0.002  0.00  0.00    -0.068 C 
ATOM     21  H4  <0> d           0.529  -0.365   0.885  0.00  0.00     0.032 H 
ATOM     22  H5  <0> d          -1.020  -0.381   0.010  0.00  0.00     0.032 H 
BRANCH  20  23
ATOM     23  C1  <0> d          -0.019   1.526   0.010  0.00  0.00    -0.077 C 
ATOM     24  H1  <0> d           1.004   1.903   0.003  0.00  0.00     0.027 H 
ATOM     25  H2  <0> d          -0.546   1.887  -0.873  0.00  0.00     0.027 H 
ATOM     26  H3  <0> d          -0.529   1.877   0.907  0.00  0.00     0.027 H 
ENDBRANCH  20  23
ENDBRANCH  17  20
ENDBRANCH  14  17
ENDBRANCH   1  14
TORSDOF 4
