REMARK  3 active torsions:
REMARK  status: ('A' for Active; 'I' for Inactive)
REMARK    1  A    between atoms: C1_1  and  C2_2 
REMARK       I    between atoms: C2_2  and  N1_4 
REMARK    2  A    between atoms: C6_8  and  C8_11 
REMARK    3  A    between atoms: C8_11  and  O2_12 
ROOT
ATOM      1  C2  <0> d          -0.014   1.209   0.009  0.00  0.00     0.215 C 
ATOM      2  O1  <0> d          -1.007   1.906   0.029  0.00  0.00    -0.274 OA
ATOM      3  N1  <0> d           1.208   1.776  -0.013  0.00  0.00    -0.352 N 
ATOM      4  C3  <0> d           1.354   3.235  -0.117  0.00  0.00    -0.002 C 
ATOM      5  C4  <0> d           2.279   3.555  -1.295  0.00  0.00    -0.050 C 
ATOM      6  C5  <0> d           3.599   2.801  -1.121  0.00  0.00    -0.057 C 
ATOM      7  C6  <0> d           3.332   1.295  -1.113  0.00  0.00    -0.018 C 
ATOM      8  H1  <0> d           2.846   1.002  -2.056  0.00  0.00     0.045 H 
ATOM      9  C7  <0> d           2.419   0.949   0.074  0.00  0.00     0.003 C 
ATOM     10  H5  <0> d           0.367   3.691  -0.282  0.00  0.00     0.064 H 
ATOM     11  H6  <0> d           1.788   3.627   0.815  0.00  0.00     0.064 H 
ATOM     12  H7  <0> d           1.798   3.243  -2.234  0.00  0.00     0.035 H 
ATOM     13  H8  <0> d           2.473   4.637  -1.325  0.00  0.00     0.035 H 
ATOM     14  H9  <0> d           4.275   3.049  -1.954  0.00  0.00     0.033 H 
ATOM     15  H10 <0> d           4.067   3.096  -0.170  0.00  0.00     0.033 H 
ATOM     16  H11 <0> d           2.939   1.158   1.020  0.00  0.00     0.065 H 
ATOM     17  H12 <0> d           2.140  -0.114   0.035  0.00  0.00     0.065 H 
ENDROOT
BRANCH   1  18
ATOM     18  C1  <0> d          -0.148  -0.292   0.014  0.00  0.00    -0.003 C 
ATOM     19  H2  <0> d           0.852  -0.750  -0.007  0.00  0.00     0.040 H 
ATOM     20  H3  <0> d          -0.716  -0.613  -0.872  0.00  0.00     0.040 H 
ATOM     21  H4  <0> d          -0.678  -0.611   0.924  0.00  0.00     0.040 H 
ENDBRANCH   1  18
BRANCH   7  22
ATOM     22  C8  <0> d           4.656   0.542  -0.972  0.00  0.00     0.021 C 
ATOM     23  H13 <0> d           5.346   0.860  -1.768  0.00  0.00     0.074 H 
ATOM     24  H14 <0> d           5.102   0.763   0.009  0.00  0.00     0.074 H 
BRANCH  22  25
ATOM     25  O2  <0> d           4.419  -0.863  -1.081  0.00  0.00    -0.400 OA
ATOM     26  H15 <0> d           5.259  -1.570  -1.004  0.00  0.00     0.209 HD
ENDBRANCH  22  25
ENDBRANCH   7  22
TORSDOF 3
