REMARK  3 active torsions:
REMARK  status: ('A' for Active; 'I' for Inactive)
REMARK    1  A    between atoms: N1_3  and  C4_7 
REMARK    2  A    between atoms: C4_7  and  C5_8 
REMARK    3  A    between atoms: C5_8  and  O2_9 
ROOT
ATOM      1  C1  <0> d          -1.410   2.817   3.093  0.00  0.00     0.012 A 
ATOM      2  C2  <0> d          -0.415   2.818   1.917  0.00  0.00     0.014 A 
ATOM      3  N1  <0> d          -0.698   1.558   1.213  0.00  0.00    -0.331 N 
ATOM      4  C3  <0> d          -1.679   0.908   1.853  0.00  0.00     0.318 A 
ATOM      5  O1  <0> d          -2.111  -0.168   1.487  0.00  0.00    -0.247 OA
ATOM      6  N2  <0> d          -2.143   1.552   2.933  0.00  0.00    -0.341 N 
ATOM      7  H1  <0> d          -2.091   3.665   3.023  0.00  0.00     0.066 H 
ATOM      8  H2  <0> d          -0.875   2.832   4.042  0.00  0.00     0.066 H 
ATOM      9  H3  <0> d           0.612   2.830   2.282  0.00  0.00     0.067 H 
ATOM     10  H4  <0> d          -0.599   3.671   1.263  0.00  0.00     0.067 H 
ATOM     11  H5  <0> d          -2.849   1.234   3.516  0.00  0.00     0.164 HD
ENDROOT
BRANCH   3  12
ATOM     12  C4  <0> d          -0.013   1.086   0.008  0.00  0.00     0.019 C 
ATOM     13  H6  <0> d           0.002  -0.004   0.002  0.00  0.00     0.067 H 
ATOM     14  H7  <0> d           1.010   1.463   0.000  0.00  0.00     0.067 H 
BRANCH  12  15
ATOM     15  C5  <0> d          -0.753   1.593  -1.232  0.00  0.00     0.032 C 
ATOM     16  H8  <0> d          -0.296   1.169  -2.126  0.00  0.00     0.076 H 
ATOM     17  H9  <0> d          -1.798   1.290  -1.179  0.00  0.00     0.076 H 
BRANCH  15  18
ATOM     18  O2  <0> d          -0.672   3.018  -1.285  0.00  0.00    -0.399 OA
ATOM     19  H10 <0> d          -1.120   3.410  -2.047  0.00  0.00     0.209 HD
ENDBRANCH  15  18
ENDBRANCH  12  15
ENDBRANCH   3  12
TORSDOF 3
