REMARK  4 active torsions:
REMARK  status: ('A' for Active; 'I' for Inactive)
REMARK    1  A    between atoms: C2_2  and  C4_7 
REMARK    2  A    between atoms: C4_7  and  C5_8 
REMARK    3  A    between atoms: C5_8  and  C6_10 
REMARK    4  A    between atoms: C5_8  and  O3_13 
ROOT
ATOM      1  C4  <0> d           2.510   1.450  -0.013  0.00  0.00     0.008 C 
ATOM      2  H5  <0> d           3.134   2.244   0.424  0.00  0.00     0.046 H 
ATOM      3  H6  <0> d           2.623   0.528   0.576  0.00  0.00     0.046 H 
ENDROOT
BRANCH   1   4
ATOM      4  C2  <0> d           1.066   1.882   0.002  0.00  0.00     0.030 A 
ATOM      5  C1  <0> d          -0.013   1.076   0.008  0.00  0.00     0.025 A 
ATOM      6  N2  <0> d          -1.108   1.849   0.017  0.00  0.00    -0.254 NA
ATOM      7  H3  <0> d           0.002  -0.004   0.002  0.00  0.00     0.117 H 
ATOM      8  C3  <0> d          -0.750   3.104   0.025  0.00  0.00     0.063 A 
ATOM      9  N1  <0> d           0.599   3.169   0.013  0.00  0.00    -0.353 N 
ATOM     10  H4  <0> d          -1.420   3.950   0.035  0.00  0.00     0.143 H 
ATOM     11  H1  <0> d           1.307   4.011   0.010  0.00  0.00     0.166 HD
ENDBRANCH   1   4
BRANCH   1  12
ATOM     12  C5  <0> d           2.950   1.191  -1.455  0.00  0.00     0.124 C 
ATOM     13  H2  <0> d           2.266   0.501  -1.971  0.00  0.00     0.100 H 
BRANCH  12  14
ATOM     14  C6  <0> d           4.354   0.643  -1.461  0.00  0.00     0.203 C 
ATOM     15  O1  <0> d           5.250   1.282  -1.959  0.00  0.00    -0.646 OA
ATOM     16  O2  <0> d           4.608  -0.556  -0.914  0.00  0.00    -0.646 OA
ENDBRANCH  12  14
BRANCH  12  17
ATOM     17  O3  <0> d           2.914   2.415  -2.192  0.00  0.00    -0.384 OA
ATOM     18  H7  <0> d           3.199   2.426  -3.254  0.00  0.00     0.210 HD
ENDBRANCH  12  17
ENDBRANCH   1  12
TORSDOF 4
