REMARK  6 active torsions:
REMARK  status: ('A' for Active; 'I' for Inactive)
REMARK    1  A    between atoms: C1_1  and  C2_2 
REMARK    2  A    between atoms: C2_2  and  C3_3 
REMARK    3  A    between atoms: C2_2  and  C4_4 
REMARK    4  A    between atoms: C2_2  and  C5_5 
REMARK       I    between atoms: C5_5  and  N1_7 
REMARK    5  A    between atoms: N1_7  and  C6_8 
REMARK    6  A    between atoms: C6_8  and  C7_9 
ROOT
ATOM      1  C2  <0> d          -1.331   2.079   0.020  0.00  0.00     0.030 C 
ENDROOT
BRANCH   1   2
ATOM      2  C1  <0> d          -1.072   3.587   0.027  0.00  0.00    -0.061 C 
ATOM      3  H1  <0> d          -0.508   3.863  -0.865  0.00  0.00     0.029 H 
ATOM      4  H2  <0> d          -2.023   4.119   0.034  0.00  0.00     0.029 H 
ATOM      5  H3  <0> d          -0.500   3.853   0.915  0.00  0.00     0.029 H 
ENDBRANCH   1   2
BRANCH   1   6
ATOM      6  C3  <0> d          -2.135   1.706  -1.228  0.00  0.00    -0.061 C 
ATOM      7  H4  <0> d          -2.319   0.631  -1.233  0.00  0.00     0.029 H 
ATOM      8  H5  <0> d          -3.086   2.238  -1.220  0.00  0.00     0.029 H 
ATOM      9  H6  <0> d          -1.571   1.981  -2.119  0.00  0.00     0.029 H 
ENDBRANCH   1   6
BRANCH   1  10
ATOM     10  C4  <0> d          -2.123   1.692   1.271  0.00  0.00    -0.061 C 
ATOM     11  H7  <0> d          -1.550   1.958   2.159  0.00  0.00     0.029 H 
ATOM     12  H8  <0> d          -3.074   2.224   1.278  0.00  0.00     0.029 H 
ATOM     13  H9  <0> d          -2.307   0.618   1.266  0.00  0.00     0.029 H 
ENDBRANCH   1  10
BRANCH   1  14
ATOM     14  C5  <0> d          -0.016   1.344   0.009  0.00  0.00     0.225 C 
ATOM     15  O1  <0> d           1.026   1.964   0.003  0.00  0.00    -0.273 OA
ATOM     16  N1  <0> d           0.002  -0.004   0.002  0.00  0.00    -0.350 N 
ATOM     17  H10 <0> d          -0.831  -0.500   0.007  0.00  0.00     0.163 HD
BRANCH  16  18
ATOM     18  C6  <0> d           1.281  -0.719  -0.014  0.00  0.00     0.075 C 
ATOM     19  H11 <0> d           1.840  -0.443  -0.908  0.00  0.00     0.080 H 
ATOM     20  H12 <0> d           1.857  -0.453   0.872  0.00  0.00     0.080 H 
BRANCH  18  21
ATOM     21  C7  <0> d           1.025  -2.204  -0.020  0.00  0.00     0.191 C 
ATOM     22  O2  <0> d          -0.108  -2.623  -0.011  0.00  0.00    -0.647 OA
ATOM     23  O3  <0> d           2.057  -3.063  -0.034  0.00  0.00    -0.647 OA
ENDBRANCH  18  21
ENDBRANCH  16  18
ENDBRANCH   1  14
TORSDOF 6
