REMARK  2 active torsions:
REMARK  status: ('A' for Active; 'I' for Inactive)
REMARK    1  A    between atoms: C4_5  and  S1_7 
REMARK    2  A    between atoms: S1_7  and  N2_10 
ROOT
ATOM      1  C1  <0> d           1.174   1.794   0.001  0.00  0.00    -0.079 A 
ATOM      2  C2  <0> d          -0.013   1.076   0.008  0.00  0.00    -0.066 A 
ATOM      3  C3  <0> d          -1.214   1.759   0.017  0.00  0.00     0.004 A 
ATOM      4  N1  <0> d          -1.239   3.078   0.030  0.00  0.00    -0.248 NA
ATOM      5  C4  <0> d          -0.132   3.793   0.024  0.00  0.00     0.166 A 
ATOM      6  C5  <0> d           1.107   3.179   0.009  0.00  0.00    -0.043 A 
ATOM      7  H1  <0> d           2.127   1.287  -0.011  0.00  0.00     0.083 H 
ATOM      8  H2  <0> d           0.002  -0.004   0.002  0.00  0.00     0.085 H 
ATOM      9  H3  <0> d          -2.142   1.207   0.018  0.00  0.00     0.114 H 
ATOM     10  H4  <0> d           2.010   3.770   0.004  0.00  0.00     0.088 H 
ENDROOT
BRANCH   5  11
ATOM     11  S1  <0> d          -0.231   5.552   0.034  0.00  0.00     0.256 S 
ATOM     12  O1  <0> d          -1.492   5.885   0.599  0.00  0.00    -0.205 OA
ATOM     13  O2  <0> d           0.995   6.025   0.575  0.00  0.00    -0.205 OA
BRANCH  11  14
ATOM     14  N2  <0> d          -0.274   6.049  -1.546  0.00  0.00    -0.224 NA
ATOM     15  H5  <0> d          -0.337   7.147  -1.583  0.00  0.00     0.136 HD
ATOM     16  H6  <0> d          -1.154   5.614  -2.043  0.00  0.00     0.136 HD
ENDBRANCH  11  14
ENDBRANCH   5  11
TORSDOF 2
