REMARK  8 active torsions:
REMARK  status: ('A' for Active; 'I' for Inactive)
REMARK    1  A    between atoms: C1_1  and  C2_2 
REMARK    2  A    between atoms: C2_2  and  C3_3 
REMARK    3  A    between atoms: C3_3  and  C4_4 
REMARK    4  A    between atoms: C4_4  and  C5_6 
REMARK    5  A    between atoms: C4_4  and  O3_11 
REMARK    6  A    between atoms: C5_6  and  C6_8 
REMARK    7  A    between atoms: C5_6  and  O2_10 
REMARK    8  A    between atoms: C6_8  and  O1_9 
ROOT
ATOM      1  C4  <0> d           2.064   1.114   1.238  0.00  0.00     0.062 C 
ATOM      2  H1  <0> d           2.164   0.029   1.231  0.00  0.00     0.086 H 
ENDROOT
BRANCH   1   3
ATOM      3  C3  <0> d           1.310   1.548   2.497  0.00  0.00    -0.039 C 
ATOM      4  H8  <0> d           1.287   2.637   2.549  0.00  0.00     0.036 H 
ATOM      5  H9  <0> d           0.291   1.164   2.461  0.00  0.00     0.036 H 
BRANCH   3   6
ATOM      6  C2  <0> d           2.021   0.994   3.733  0.00  0.00    -0.066 C 
ATOM      7  H6  <0> d           2.044  -0.095   3.681  0.00  0.00     0.032 H 
ATOM      8  H7  <0> d           3.040   1.378   3.769  0.00  0.00     0.032 H 
BRANCH   6   9
ATOM      9  C1  <0> d           1.267   1.428   4.992  0.00  0.00    -0.076 C 
ATOM     10  H3  <0> d           1.244   2.517   5.044  0.00  0.00     0.027 H 
ATOM     11  H4  <0> d           0.248   1.044   4.956  0.00  0.00     0.027 H 
ATOM     12  H5  <0> d           1.774   1.033   5.872  0.00  0.00     0.027 H 
ENDBRANCH   6   9
ENDBRANCH   3   6
ENDBRANCH   1   3
BRANCH   1  13
ATOM     13  C5  <0> d           1.286   1.562  -0.002  0.00  0.00     0.080 C 
ATOM     14  H2  <0> d           1.186   2.647   0.005  0.00  0.00     0.090 H 
BRANCH  13  15
ATOM     15  C6  <0> d           2.040   1.127  -1.261  0.00  0.00     0.043 C 
ATOM     16  H10 <0> d           3.059   1.512  -1.225  0.00  0.00     0.078 H 
ATOM     17  H11 <0> d           2.063   0.039  -1.313  0.00  0.00     0.078 H 
BRANCH  15  18
ATOM     18  O1  <0> d           1.376   1.645  -2.415  0.00  0.00    -0.398 OA
ATOM     19  H12 <0> d           1.800   1.409  -3.252  0.00  0.00     0.209 HD
ENDBRANCH  15  18
ENDBRANCH  13  15
BRANCH  13  20
ATOM     20  O2  <0> d          -0.011   0.963   0.007  0.00  0.00    -0.391 OA
ATOM     21  H13 <0> d           0.002  -0.004   0.002  0.00  0.00     0.210 HD
ENDBRANCH  13  20
ENDBRANCH   1  13
BRANCH   1  22
ATOM     22  O3  <0> d           3.361   1.713   1.228  0.00  0.00    -0.393 OA
ATOM     23  H14 <0> d           3.348   2.680   1.234  0.00  0.00     0.210 HD
ENDBRANCH   1  22
TORSDOF 8
