REMARK  2 active torsions:
REMARK  status: ('A' for Active; 'I' for Inactive)
REMARK    1  A    between atoms: C1_1  and  C2_2 
REMARK    2  A    between atoms: C4_7  and  C6_12 
ROOT
ATOM      1  C2  <0> d           2.205  -0.159   0.863  0.00  0.00     0.128 C 
ATOM      2  H1  <0> d           2.726  -0.526   1.747  0.00  0.00     0.099 H 
ATOM      3  C3  <0> d           2.185   1.354   0.871  0.00  0.00     0.289 C 
ATOM      4  O1  <0> d           2.881   1.983   1.632  0.00  0.00    -0.262 OA
ATOM      5  O2  <0> d           1.363   1.980  -0.000  0.00  0.00    -0.304 OA
ATOM      6  C4  <0> d          -0.018   1.510   0.010  0.00  0.00     0.128 C 
ATOM      7  H2  <0> d          -0.539   1.876  -0.875  0.00  0.00     0.099 H 
ATOM      8  C5  <0> d           0.002  -0.004   0.002  0.00  0.00     0.289 C 
ATOM      9  O3  <0> d          -0.695  -0.633  -0.759  0.00  0.00    -0.262 OA
ATOM     10  O4  <0> d           0.824  -0.630   0.873  0.00  0.00    -0.304 OA
ENDROOT
BRANCH   1  11
ATOM     11  C1  <0> d           2.912  -0.660  -0.399  0.00  0.00    -0.043 C 
ATOM     12  H3  <0> d           2.395  -0.281  -1.280  0.00  0.00     0.031 H 
ATOM     13  H4  <0> d           3.943  -0.306  -0.402  0.00  0.00     0.031 H 
ATOM     14  H5  <0> d           2.902  -1.750  -0.412  0.00  0.00     0.031 H 
ENDBRANCH   1  11
BRANCH   6  15
ATOM     15  C6  <0> d          -0.726   2.010   1.272  0.00  0.00    -0.043 C 
ATOM     16  H6  <0> d          -0.194   1.652   2.153  0.00  0.00     0.031 H 
ATOM     17  H7  <0> d          -0.738   3.100   1.273  0.00  0.00     0.031 H 
ATOM     18  H8  <0> d          -1.749   1.635   1.287  0.00  0.00     0.031 H 
ENDBRANCH   6  15
TORSDOF 2
