REMARK  0 active torsions:
REMARK  status: ('A' for Active; 'I' for Inactive)
ROOT
ATOM      1  C1  <0> d           2.295   0.037  -0.021  0.00  0.00     0.021 A 
ATOM      2  C2  <0> d           2.276   1.435  -0.013  0.00  0.00     0.021 A 
ATOM      3  N1  <0> d           1.137   2.089   0.002  0.00  0.00    -0.237 NA
ATOM      4  C3  <0> d          -0.017   1.413   0.010  0.00  0.00     0.197 A 
ATOM      5  C4  <0> d           0.002  -0.004   0.002  0.00  0.00     0.197 A 
ATOM      6  N2  <0> d           1.175  -0.648  -0.013  0.00  0.00    -0.237 NA
ATOM      7  N3  <0> d          -1.153  -0.680   0.010  0.00  0.00    -0.237 NA
ATOM      8  C5  <0> d          -2.291  -0.025   0.025  0.00  0.00     0.021 A 
ATOM      9  C6  <0> d          -2.310   1.372   0.033  0.00  0.00     0.021 A 
ATOM     10  N4  <0> d          -1.190   2.057   0.030  0.00  0.00    -0.237 NA
ATOM     11  H1  <0> d           3.240  -0.484  -0.033  0.00  0.00     0.117 H 
ATOM     12  H2  <0> d           3.207   1.982  -0.020  0.00  0.00     0.117 H 
ATOM     13  H3  <0> d          -3.222  -0.572   0.033  0.00  0.00     0.117 H 
ATOM     14  H4  <0> d          -3.256   1.894   0.046  0.00  0.00     0.117 H 
ENDROOT
TORSDOF 0
