REMARK  4 active torsions:
REMARK  status: ('A' for Active; 'I' for Inactive)
REMARK    1  A    between atoms: C1_1  and  C2_2 
REMARK    2  A    between atoms: C2_2  and  C3_4 
REMARK    3  A    between atoms: C2_2  and  O2_11 
REMARK    4  A    between atoms: C5_6  and  O1_10 
ROOT
ATOM      1  C3  <0> d           1.070   1.774   0.001  0.00  0.00     0.060 A 
ATOM      2  C4  <0> d           0.631   3.053   0.012  0.00  0.00    -0.005 A 
ATOM      3  C5  <0> d          -0.772   3.027   0.024  0.00  0.00     0.183 A 
ATOM      4  N1  <0> d          -1.155   1.773   0.017  0.00  0.00    -0.149 NA
ATOM      5  N2  <0> d          -0.011   0.966   0.007  0.00  0.00    -0.277 N 
ATOM      6  H2  <0> d           0.003  -0.034   0.006  0.00  0.00     0.189 HD
ATOM      7  H6  <0> d           1.250   3.938   0.010  0.00  0.00     0.093 H 
ENDROOT
BRANCH   1   8
ATOM      8  C2  <0> d           2.510   1.329  -0.013  0.00  0.00     0.073 C 
ATOM      9  H1  <0> d           3.115   2.075  -0.529  0.00  0.00     0.092 H 
BRANCH   8  10
ATOM     10  C1  <0> d           3.010   1.172   1.424  0.00  0.00    -0.047 C 
ATOM     11  H3  <0> d           4.051   0.851   1.414  0.00  0.00     0.031 H 
ATOM     12  H4  <0> d           2.929   2.127   1.943  0.00  0.00     0.031 H 
ATOM     13  H5  <0> d           2.405   0.426   1.940  0.00  0.00     0.031 H 
ENDBRANCH   8  10
BRANCH   8  14
ATOM     14  O2  <0> d           2.615   0.077  -0.694  0.00  0.00    -0.390 OA
ATOM     15  H8  <0> d           3.516  -0.270  -0.741  0.00  0.00     0.210 HD
ENDBRANCH   8  14
ENDBRANCH   1   8
BRANCH   3  16
ATOM     16  O1  <0> d          -1.590   4.113   0.037  0.00  0.00    -0.344 OA
ATOM     17  H7  <0> d          -2.544   3.811   0.044  0.00  0.00     0.219 HD
ENDBRANCH   3  16
TORSDOF 4
