REMARK  2 active torsions:
REMARK  status: ('A' for Active; 'I' for Inactive)
REMARK    1  A    between atoms: C2_2  and  C5_10 
REMARK    2  A    between atoms: C3_3  and  N3_9 
ROOT
ATOM      1  C1  <0> d          -1.169  -0.734   0.107  0.00  0.00     0.002 A 
ATOM      2  C2  <0> d           0.002  -0.004  -0.004  0.00  0.00     0.096 A 
ATOM      3  C3  <0> d           1.264  -0.743  -0.130  0.00  0.00     0.124 A 
ATOM      4  N1  <0> d           1.229  -2.068  -0.122  0.00  0.00    -0.181 NA
ATOM      5  C4  <0> d           0.073  -2.720  -0.012  0.00  0.00     0.347 A 
ATOM      6  O1  <0> d           0.083  -3.939  -0.014  0.00  0.00    -0.245 OA
ATOM      7  N2  <0> d          -1.103  -2.081   0.100  0.00  0.00    -0.316 N 
ATOM      8  H1  <0> d          -1.945  -2.615   0.180  0.00  0.00     0.170 HD
ATOM      9  H2  <0> d          -2.122  -0.233   0.198  0.00  0.00     0.113 H 
ENDROOT
BRANCH   2  10
ATOM     10  C5  <0> d          -0.019   1.467  -0.002  0.00  0.00     0.214 C 
ATOM     11  O2  <0> d          -1.080   2.060  -0.006  0.00  0.00    -0.644 OA
ATOM     12  O3  <0> d           1.139   2.157  -0.000  0.00  0.00    -0.644 OA
ENDBRANCH   2  10
BRANCH   3  13
ATOM     13  N3  <0> d           2.456  -0.075  -0.249  0.00  0.00    -0.286 NA
ATOM     14  H3  <0> d           2.406   0.563  -1.017  0.00  0.00     0.125 HD
ATOM     15  H4  <0> d           3.275  -0.570  -0.408  0.00  0.00     0.125 HD
ENDBRANCH   3  13
TORSDOF 2
