REMARK  0 active torsions:
REMARK  status: ('A' for Active; 'I' for Inactive)
ROOT
ATOM      1  C1  <0> d          -1.014   1.227   3.625  0.00  0.00    -0.082 A 
ATOM      2  C2  <0> d          -1.859   2.321   3.667  0.00  0.00    -0.082 A 
ATOM      3  C3  <0> d          -2.122   3.024   2.510  0.00  0.00    -0.076 A 
ATOM      4  C4  <0> d          -1.546   2.644   1.304  0.00  0.00    -0.045 A 
ATOM      5  C5  <0> d          -0.699   1.562   1.260  0.00  0.00    -0.051 A 
ATOM      6  C6  <0> d          -0.438   0.852   2.430  0.00  0.00    -0.076 A 
ATOM      7  C7  <0> d          -0.013   1.086   0.008  0.00  0.00    -0.034 C 
ATOM      8  C8  <0> d          -0.733   1.582  -1.244  0.00  0.00    -0.006 C 
ATOM      9  C9  <0> d          -0.998   3.064  -1.063  0.00  0.00     0.131 C 
ATOM     10  O1  <0> d          -0.514   3.888  -1.801  0.00  0.00    -0.298 OA
ATOM     11  C10 <0> d          -1.897   3.459   0.084  0.00  0.00     0.015 C 
ATOM     12  H1  <0> d          -0.806   0.668   4.525  0.00  0.00     0.083 H 
ATOM     13  H2  <0> d          -2.309   2.624   4.601  0.00  0.00     0.083 H 
ATOM     14  H3  <0> d          -2.781   3.878   2.542  0.00  0.00     0.084 H 
ATOM     15  H4  <0> d           0.221  -0.003   2.401  0.00  0.00     0.084 H 
ATOM     16  H5  <0> d           0.002  -0.004   0.002  0.00  0.00     0.040 H 
ATOM     17  H6  <0> d           1.012   1.456   0.000  0.00  0.00     0.040 H 
ATOM     18  H7  <0> d          -0.155   1.424  -2.045  0.00  0.00     0.044 H 
ATOM     19  H8  <0> d          -1.675   1.049  -1.364  0.00  0.00     0.044 H 
ATOM     20  H9  <0> d          -1.772   4.430   0.285  0.00  0.00     0.051 H 
ATOM     21  H10 <0> d          -2.936   3.275  -0.189  0.00  0.00     0.051 H 
ENDROOT
TORSDOF 0
