REMARK  0 active torsions:
REMARK  status: ('A' for Active; 'I' for Inactive)
ROOT
ATOM      1  C1  <0> d           3.674   0.403  -3.164  0.00  0.00    -0.082 A 
ATOM      2  C2  <0> d           4.048   1.571  -2.526  0.00  0.00    -0.082 A 
ATOM      3  C3  <0> d           3.267   2.080  -1.508  0.00  0.00    -0.073 A 
ATOM      4  C4  <0> d           2.108   1.425  -1.121  0.00  0.00    -0.009 A 
ATOM      5  C5  <0> d           1.733   0.262  -1.761  0.00  0.00    -0.046 A 
ATOM      6  C6  <0> d           2.518  -0.249  -2.781  0.00  0.00    -0.076 A 
ATOM      7  C7  <0> d           0.476  -0.475  -1.374  0.00  0.00    -0.021 C 
ATOM      8  C8  <0> d           0.002  -0.004   0.002  0.00  0.00     0.025 C 
ATOM      9  O1  <0> d          -0.017   1.428   0.010  0.00  0.00    -0.366 OA
ATOM     10  C9  <0> d           1.287   2.006   0.001  0.00  0.00     0.147 C 
ATOM     11  H1  <0> d           1.780   1.802   0.951  0.00  0.00     0.114 H 
ATOM     12  C10 <0> d           1.174   3.462  -0.182  0.00  0.00     0.096 C 
ATOM     13  N1  <0> d           1.086   4.586  -0.324  0.00  0.00    -0.194 NA
ATOM     14  H2  <0> d           4.284   0.002  -3.960  0.00  0.00     0.083 H 
ATOM     15  H3  <0> d           4.950   2.084  -2.824  0.00  0.00     0.083 H 
ATOM     16  H4  <0> d           3.560   2.993  -1.010  0.00  0.00     0.084 H 
ATOM     17  H5  <0> d           2.226  -1.162  -3.280  0.00  0.00     0.084 H 
ATOM     18  H6  <0> d           0.679  -1.546  -1.340  0.00  0.00     0.043 H 
ATOM     19  H7  <0> d          -0.301  -0.277  -2.112  0.00  0.00     0.043 H 
ATOM     20  H8  <0> d           0.687  -0.365   0.769  0.00  0.00     0.074 H 
ATOM     21  H9  <0> d          -1.000  -0.385   0.198  0.00  0.00     0.074 H 
ENDROOT
TORSDOF 0
