REMARK  2 active torsions:
REMARK  status: ('A' for Active; 'I' for Inactive)
REMARK    1  A    between atoms: N1_6  and  C4_7 
REMARK    2  A    between atoms: C4_7  and  C5_8 
ROOT
ATOM      1  C1  <0> d           1.502  -0.357  -0.014  0.00  0.00     0.021 A 
ATOM      2  C2  <0> d           0.002  -0.004   0.002  0.00  0.00     0.045 A 
ATOM      3  O1  <0> d          -0.018   1.453   0.010  0.00  0.00    -0.302 OA
ATOM      4  C3  <0> d           1.237   1.916   0.001  0.00  0.00     0.363 A 
ATOM      5  O2  <0> d           1.507   3.101   0.004  0.00  0.00    -0.238 OA
ATOM      6  N1  <0> d           2.170   0.954  -0.013  0.00  0.00    -0.316 N 
ATOM      7  H1  <0> d           1.772  -0.924   0.876  0.00  0.00     0.067 H 
ATOM      8  H2  <0> d           1.754  -0.915  -0.916  0.00  0.00     0.067 H 
ATOM      9  H3  <0> d          -0.473  -0.398   0.900  0.00  0.00     0.077 H 
ATOM     10  H4  <0> d          -0.490  -0.388  -0.891  0.00  0.00     0.077 H 
ENDROOT
BRANCH   6  11
ATOM     11  C4  <0> d           3.619   1.172  -0.027  0.00  0.00     0.080 C 
ATOM     12  H5  <0> d           3.851   2.103   0.490  0.00  0.00     0.081 H 
ATOM     13  H6  <0> d           4.115   0.343   0.478  0.00  0.00     0.081 H 
BRANCH  11  14
ATOM     14  C5  <0> d           4.101   1.254  -1.452  0.00  0.00     0.191 C 
ATOM     15  O3  <0> d           3.316   1.143  -2.363  0.00  0.00    -0.647 OA
ATOM     16  O4  <0> d           5.404   1.452  -1.709  0.00  0.00    -0.647 OA
ENDBRANCH  11  14
ENDBRANCH   6  11
TORSDOF 2
