REMARK  5 active torsions:
REMARK  status: ('A' for Active; 'I' for Inactive)
REMARK    1  A    between atoms: C1_1  and  N1_2 
REMARK    2  A    between atoms: N1_2  and  C2_3 
REMARK       I    between atoms: N1_2  and  C3_4 
REMARK    3  A    between atoms: C3_4  and  C4_6 
REMARK    4  A    between atoms: C4_6  and  C5_7 
REMARK    5  A    between atoms: C5_7  and  O2_8 
ROOT
ATOM      1  N1  <0> d           2.636   5.059   0.004  0.00  0.00    -0.361 N 
ATOM      2  C3  <0> d           2.513   3.717  -0.002  0.00  0.00     0.221 C 
ATOM      3  O1  <0> d           3.504   3.017  -0.015  0.00  0.00    -0.273 OA
ENDROOT
BRANCH   2   4
ATOM      4  C4  <0> d           1.145   3.085   0.008  0.00  0.00     0.029 C 
ATOM      5  H7  <0> d           0.591   3.404  -0.875  0.00  0.00     0.050 H 
ATOM      6  H8  <0> d           0.608   3.395   0.904  0.00  0.00     0.050 H 
BRANCH   4   7
ATOM      7  C5  <0> d           1.286   1.562  -0.002  0.00  0.00     0.025 C 
ATOM      8  H9  <0> d           1.840   1.243   0.881  0.00  0.00     0.074 H 
ATOM      9  H10 <0> d           1.823   1.252  -0.899  0.00  0.00     0.074 H 
BRANCH   7  10
ATOM     10  O2  <0> d          -0.011   0.963   0.007  0.00  0.00    -0.400 OA
ATOM     11  H11 <0> d           0.002  -0.004   0.002  0.00  0.00     0.209 HD
ENDBRANCH   7  10
ENDBRANCH   4   7
ENDBRANCH   2   4
BRANCH   1  12
ATOM     12  C1  <0> d           3.966   5.673  -0.005  0.00  0.00    -0.017 C 
ATOM     13  H1  <0> d           4.286   5.831  -1.035  0.00  0.00     0.056 H 
ATOM     14  H2  <0> d           3.928   6.630   0.514  0.00  0.00     0.056 H 
ATOM     15  H3  <0> d           4.674   5.014   0.498  0.00  0.00     0.056 H 
ENDBRANCH   1  12
BRANCH   1  16
ATOM     16  C2  <0> d           1.439   5.904   0.020  0.00  0.00    -0.017 C 
ATOM     17  H4  <0> d           1.152   6.108   1.052  0.00  0.00     0.056 H 
ATOM     18  H5  <0> d           1.651   6.843  -0.491  0.00  0.00     0.056 H 
ATOM     19  H6  <0> d           0.624   5.389  -0.489  0.00  0.00     0.056 H 
ENDBRANCH   1  16
TORSDOF 5
