REMARK  2 active torsions:
REMARK  status: ('A' for Active; 'I' for Inactive)
REMARK    1  A    between atoms: C1_1  and  C2_2 
REMARK    2  A    between atoms: C1_1  and  C4_10 
ROOT
ATOM      1  C2  <0> d           0.002  -0.004   0.002  0.00  0.00     0.138 A 
ATOM      2  N1  <0> d          -1.104  -0.819   0.003  0.00  0.00    -0.293 N 
ATOM      3  H1  <0> d          -2.028  -0.522   0.009  0.00  0.00     0.172 HD
ATOM      4  C3  <0> d          -0.687  -2.100  -0.007  0.00  0.00     0.342 A 
ATOM      5  O1  <0> d          -1.397  -3.090  -0.009  0.00  0.00    -0.245 OA
ATOM      6  N2  <0> d           0.662  -2.086  -0.014  0.00  0.00    -0.227 N 
ATOM      7  H2  <0> d           1.246  -2.860  -0.021  0.00  0.00     0.194 HD
ATOM      8  N3  <0> d           1.065  -0.743  -0.013  0.00  0.00    -0.157 NA
ENDROOT
BRANCH   1   9
ATOM      9  C1  <0> d          -0.018   1.503   0.010  0.00  0.00     0.072 C 
ATOM     10  H3  <0> d          -0.545   1.864  -0.873  0.00  0.00     0.061 H 
ATOM     11  H4  <0> d          -0.529   1.854   0.907  0.00  0.00     0.061 H 
BRANCH   9  12
ATOM     12  C4  <0> d           1.395   2.024  -0.000  0.00  0.00     0.179 C 
ATOM     13  O2  <0> d           2.333   1.245  -0.013  0.00  0.00    -0.648 OA
ATOM     14  O3  <0> d           1.602   3.226   0.004  0.00  0.00    -0.648 OA
ENDBRANCH   9  12
ENDBRANCH   1   9
TORSDOF 2
