REMARK  1 active torsions:
REMARK  status: ('A' for Active; 'I' for Inactive)
REMARK    1  A    between atoms: C4_4  and  O1_6 
ROOT
ATOM      1  C1  <0> d          -0.019   1.542   0.011  0.00  0.00    -0.057 C 
ATOM      2  C2  <0> d           1.492   1.871  -0.002  0.00  0.00    -0.047 C 
ATOM      3  C3  <0> d           2.156   0.653   0.597  0.00  0.00    -0.073 C 
ATOM      4  C4  <0> d           1.340  -0.374   0.600  0.00  0.00     0.065 C 
ATOM      5  C5  <0> d           0.002  -0.004   0.002  0.00  0.00    -0.019 C 
ATOM      6  H1  <0> d          -0.494   1.921   0.915  0.00  0.00     0.034 H 
ATOM      7  H2  <0> d          -0.511   1.931  -0.881  0.00  0.00     0.034 H 
ATOM      8  H3  <0> d           1.838   2.028  -1.024  0.00  0.00     0.038 H 
ATOM      9  H4  <0> d           1.694   2.752   0.607  0.00  0.00     0.038 H 
ATOM     10  H5  <0> d           3.168   0.631   0.973  0.00  0.00     0.080 H 
ATOM     11  H6  <0> d          -0.809  -0.398   0.614  0.00  0.00     0.043 H 
ATOM     12  H7  <0> d          -0.075  -0.379  -1.018  0.00  0.00     0.043 H 
ENDROOT
BRANCH   4  13
ATOM     13  O1  <0> d           1.655  -1.605   1.075  0.00  0.00    -0.246 OA
ATOM     14 Cl1  <0> d           3.161  -1.720   1.660  0.00  0.00     0.067 Cl
ENDBRANCH   4  13
TORSDOF 1
