REMARK  1 active torsions:
REMARK  status: ('A' for Active; 'I' for Inactive)
REMARK    1  A    between atoms: C3_4  and  N3_9 
ROOT
ATOM      1  C1  <0> d           1.194  -0.698  -0.013  0.00  0.00    -0.046 A 
ATOM      2  C2  <0> d           0.002  -0.004   0.002  0.00  0.00     0.006 A 
ATOM      3  N1  <0> d          -0.016   1.315   0.009  0.00  0.00    -0.244 NA
ATOM      4  C3  <0> d           1.098   2.031   0.003  0.00  0.00     0.122 A 
ATOM      5  C4  <0> d           2.341   1.410  -0.013  0.00  0.00    -0.019 A 
ATOM      6  C5  <0> d           2.399   0.015  -0.021  0.00  0.00     0.049 A 
ATOM      7  C6  <0> d           3.658  -0.668  -0.037  0.00  0.00     0.099 C 
ATOM      8  N2  <0> d           4.656  -1.210  -0.050  0.00  0.00    -0.191 NA
ATOM      9  H1  <0> d           1.197  -1.778  -0.019  0.00  0.00     0.088 H 
ATOM     10  H2  <0> d          -0.931  -0.549   0.008  0.00  0.00     0.114 H 
ATOM     11  H3  <0> d           3.248   1.997  -0.019  0.00  0.00     0.091 H 
ENDROOT
BRANCH   4  12
ATOM     12  N3  <0> d           1.022   3.420   0.011  0.00  0.00    -0.384 N 
ATOM     13  H4  <0> d           1.944   4.020   0.005  0.00  0.00     0.157 HD
ATOM     14  H5  <0> d           0.042   3.917   0.023  0.00  0.00     0.157 HD
ENDBRANCH   4  12
TORSDOF 1
