REMARK  7 active torsions:
REMARK  status: ('A' for Active; 'I' for Inactive)
REMARK    1  A    between atoms: C1_1  and  C2_2 
REMARK    2  A    between atoms: C2_2  and  O1_3 
REMARK    3  A    between atoms: O1_3  and  C3_4 
REMARK    4  A    between atoms: C3_4  and  C4_6 
REMARK    5  A    between atoms: C4_6  and  C5_7 
REMARK    6  A    between atoms: C5_7  and  C6_9 
REMARK    7  A    between atoms: C5_7  and  O3_11 
ROOT
ATOM      1  C4  <0> d          -1.329   1.940   0.019  0.00  0.00     0.042 C 
ATOM      2  H7  <0> d          -1.391   2.561   0.913  0.00  0.00     0.051 H 
ATOM      3  H8  <0> d          -1.400   2.570  -0.867  0.00  0.00     0.051 H 
ENDROOT
BRANCH   1   4
ATOM      4  C3  <0> d          -0.014   1.204   0.009  0.00  0.00     0.261 C 
ATOM      5  O2  <0> d           0.002  -0.004   0.002  0.00  0.00    -0.265 OA
BRANCH   4   6
ATOM      6  O1  <0> d           1.139   1.891   0.001  0.00  0.00    -0.322 OA
BRANCH   6   7
ATOM      7  C2  <0> d           2.367   1.117  -0.015  0.00  0.00     0.025 C 
ATOM      8  H5  <0> d           2.409   0.484   0.872  0.00  0.00     0.074 H 
ATOM      9  H6  <0> d           2.392   0.493  -0.908  0.00  0.00     0.074 H 
BRANCH   7  10
ATOM     10  C1  <0> d           3.568   2.065  -0.021  0.00  0.00    -0.056 C 
ATOM     11  H2  <0> d           4.490   1.484  -0.033  0.00  0.00     0.030 H 
ATOM     12  H3  <0> d           3.526   2.698  -0.907  0.00  0.00     0.030 H 
ATOM     13  H4  <0> d           3.543   2.689   0.873  0.00  0.00     0.030 H 
ENDBRANCH   7  10
ENDBRANCH   6   7
ENDBRANCH   4   6
ENDBRANCH   1   4
BRANCH   1  14
ATOM     14  C5  <0> d          -2.479   0.930   0.019  0.00  0.00     0.069 C 
ATOM     15  H1  <0> d          -2.359   0.243   0.856  0.00  0.00     0.087 H 
BRANCH  14  16
ATOM     16  C6  <0> d          -3.810   1.672   0.155  0.00  0.00     0.082 C 
ATOM     17  F1  <0> d          -4.851   0.745   0.270  0.00  0.00    -0.253 F 
ATOM     18  H9  <0> d          -3.785   2.302   1.044  0.00  0.00     0.086 H 
ATOM     19  H10 <0> d          -3.971   2.293  -0.726  0.00  0.00     0.086 H 
ENDBRANCH  14  16
BRANCH  14  20
ATOM     20  O3  <0> d          -2.467   0.194  -1.206  0.00  0.00    -0.393 OA
ATOM     21  H11 <0> d          -2.569   0.743  -1.996  0.00  0.00     0.210 HD
ENDBRANCH  14  20
ENDBRANCH   1  14
TORSDOF 7
