REMARK  0 active torsions:
REMARK  status: ('A' for Active; 'I' for Inactive)
ROOT
ATOM      1  C1  <0> d          -0.019   1.526   0.010  0.00  0.00    -0.065 C 
ATOM      2  C2  <0> d           1.414   2.061  -0.000  0.00  0.00    -0.064 C 
ATOM      3  C3  <0> d           2.119   1.604  -1.281  0.00  0.00    -0.045 C 
ATOM      4  C4  <0> d           2.095   0.079  -1.352  0.00  0.00     0.082 C 
ATOM      5  C5  <0> d           0.682  -0.497  -1.278  0.00  0.00    -0.045 C 
ATOM      6  C6  <0> d           0.002  -0.004   0.002  0.00  0.00    -0.064 C 
ATOM      7  C7  <0> d           2.919  -0.487  -2.485  0.00  0.00     0.149 C 
ATOM      8  O1  <0> d           3.130  -0.205  -3.640  0.00  0.00    -0.296 OA
ATOM      9  C8  <0> d           3.361  -1.567  -1.518  0.00  0.00     0.048 C 
ATOM     10  C9  <0> d           3.066  -0.584  -0.403  0.00  0.00     0.149 C 
ATOM     11  O2  <0> d           3.438  -0.410   0.732  0.00  0.00    -0.296 OA
ATOM     12  H1  <0> d          -0.530   1.876   0.907  0.00  0.00     0.033 H 
ATOM     13  H2  <0> d          -0.547   1.886  -0.872  0.00  0.00     0.033 H 
ATOM     14  H3  <0> d           1.396   3.150   0.035  0.00  0.00     0.033 H 
ATOM     15  H4  <0> d           1.952   1.677   0.867  0.00  0.00     0.033 H 
ATOM     16  H5  <0> d           1.603   2.017  -2.148  0.00  0.00     0.035 H 
ATOM     17  H6  <0> d           3.152   1.952  -1.272  0.00  0.00     0.035 H 
ATOM     18  H7  <0> d           0.109  -0.168  -2.145  0.00  0.00     0.035 H 
ATOM     19  H8  <0> d           0.733  -1.586  -1.267  0.00  0.00     0.035 H 
ATOM     20  H9  <0> d           0.555  -0.365   0.869  0.00  0.00     0.033 H 
ATOM     21  H10 <0> d          -1.020  -0.382   0.040  0.00  0.00     0.033 H 
ATOM     22  H11 <0> d           2.711  -2.441  -1.514  0.00  0.00     0.056 H 
ATOM     23  H12 <0> d           4.417  -1.824  -1.605  0.00  0.00     0.056 H 
ENDROOT
TORSDOF 0
