REMARK  1 active torsions:
REMARK  status: ('A' for Active; 'I' for Inactive)
REMARK    1  A    between atoms: C3_3  and  C6_7 
ROOT
ATOM      1  C1  <0> d          -0.017   1.380   0.010  0.00  0.00    -0.065 A 
ATOM      2  C2  <0> d           0.002  -0.004   0.002  0.00  0.00    -0.068 A 
ATOM      3  C3  <0> d           1.241  -0.650  -0.013  0.00  0.00     0.012 A 
ATOM      4  C4  <0> d           2.403   0.120  -0.020  0.00  0.00     0.014 A 
ATOM      5  N1  <0> d           2.335   1.436  -0.013  0.00  0.00    -0.272 NA
ATOM      6  C5  <0> d           1.180   2.073   0.002  0.00  0.00     0.002 A 
ATOM      7  H2  <0> d          -0.956   1.913   0.017  0.00  0.00     0.085 H 
ATOM      8  H3  <0> d          -0.917  -0.570   0.008  0.00  0.00     0.085 H 
ATOM      9  H4  <0> d           3.367  -0.366  -0.032  0.00  0.00     0.116 H 
ATOM     10  H5  <0> d           1.169   3.153   0.007  0.00  0.00     0.114 H 
ENDROOT
BRANCH   3  11
ATOM     11  C6  <0> d           1.319  -2.132  -0.021  0.00  0.00     0.085 A 
ATOM     12  N3  <0> d           0.273  -2.983  -0.016  0.00  0.00    -0.242 NA
ATOM     13  C8  <0> d           0.718  -4.208  -0.026  0.00  0.00     0.064 A 
ATOM     14  N2  <0> d           2.069  -4.185  -0.039  0.00  0.00    -0.358 N 
ATOM     15  H7  <0> d           0.106  -5.098  -0.025  0.00  0.00     0.143 H 
ATOM     16  C7  <0> d           2.456  -2.874  -0.042  0.00  0.00     0.006 A 
ATOM     17  H1  <0> d           2.675  -4.981  -0.045  0.00  0.00     0.166 HD
ATOM     18  H6  <0> d           3.470  -2.501  -0.055  0.00  0.00     0.115 H 
ENDBRANCH   3  11
TORSDOF 1
