REMARK  1 active torsions:
REMARK  status: ('A' for Active; 'I' for Inactive)
REMARK    1  A    between atoms: C1_1  and  C2_2 
ROOT
ATOM      1  C2  <0> d           1.115   3.205   0.008  0.00  0.00     0.054 A 
ATOM      2  C3  <0> d           1.181   1.811   0.001  0.00  0.00     0.069 A 
ATOM      3  C4  <0> d          -0.013   1.076   0.008  0.00  0.00    -0.057 A 
ATOM      4  C5  <0> d          -1.209   1.768   0.017  0.00  0.00    -0.025 A 
ATOM      5  C6  <0> d          -1.190   3.155   0.030  0.00  0.00     0.210 A 
ATOM      6  N1  <0> d          -0.049   3.821   0.022  0.00  0.00    -0.224 NA
ATOM      7  F1  <0> d          -2.357   3.836   0.045  0.00  0.00    -0.184 F 
ATOM      8  C7  <0> d           2.447   1.142  -0.014  0.00  0.00     0.101 C 
ATOM      9  N2  <0> d           3.451   0.611  -0.026  0.00  0.00    -0.191 NA
ATOM     10  H4  <0> d           0.002  -0.004   0.002  0.00  0.00     0.086 H 
ATOM     11  H5  <0> d          -2.148   1.235   0.019  0.00  0.00     0.090 H 
ENDROOT
BRANCH   1  12
ATOM     12  C1  <0> d           2.388   4.013   0.000  0.00  0.00    -0.034 C 
ATOM     13  H1  <0> d           2.685   4.212  -1.029  0.00  0.00     0.035 H 
ATOM     14  H2  <0> d           2.222   4.956   0.520  0.00  0.00     0.035 H 
ATOM     15  H3  <0> d           3.176   3.453   0.504  0.00  0.00     0.035 H 
ENDBRANCH   1  12
TORSDOF 1
