REMARK  1 active torsions:
REMARK  status: ('A' for Active; 'I' for Inactive)
REMARK    1  A    between atoms: C1_1  and  C2_2 
ROOT
ATOM      1  C2  <0> d           0.002  -0.004   0.002  0.00  0.00    -0.004 C 
ATOM      2  H1  <0> d          -1.008  -0.413   0.022  0.00  0.00     0.057 H 
ATOM      3  C3  <0> d           0.810  -0.551  -1.193  0.00  0.00    -0.028 C 
ATOM      4  C4  <0> d           2.281  -0.770  -0.850  0.00  0.00    -0.033 A 
ATOM      5  C5  <0> d           3.432  -0.880  -1.673  0.00  0.00    -0.069 A 
ATOM      6  C6  <0> d           4.648  -1.095  -1.143  0.00  0.00    -0.043 A 
ATOM      7  S1  <0> d           4.282  -1.160   0.603  0.00  0.00    -0.094 SA
ATOM      8  C7  <0> d           2.540  -0.879   0.488  0.00  0.00     0.047 A 
ATOM      9  S2  <0> d           1.028  -0.672   1.378  0.00  0.00    -0.117 SA
ATOM     10  H5  <0> d           0.376  -1.501  -1.508  0.00  0.00     0.042 H 
ATOM     11  H6  <0> d           0.741   0.156  -2.019  0.00  0.00     0.042 H 
ATOM     12  H7  <0> d           3.329  -0.789  -2.744  0.00  0.00     0.085 H 
ATOM     13  H8  <0> d           5.599  -1.202  -1.643  0.00  0.00     0.095 H 
ENDROOT
BRANCH   1  14
ATOM     14  C1  <0> d          -0.019   1.526   0.010  0.00  0.00    -0.064 C 
ATOM     15  H2  <0> d           1.004   1.903   0.003  0.00  0.00     0.029 H 
ATOM     16  H3  <0> d          -0.546   1.887  -0.873  0.00  0.00     0.029 H 
ATOM     17  H4  <0> d          -0.529   1.877   0.907  0.00  0.00     0.029 H 
ENDBRANCH   1  14
TORSDOF 1
