REMARK  1 active torsions:
REMARK  status: ('A' for Active; 'I' for Inactive)
REMARK    1  A    between atoms: C6_6  and  N1_7 
ROOT
ATOM      1  C1  <0> d           1.160   3.521   0.009  0.00  0.00    -0.056 A 
ATOM      2  C2  <0> d           1.183   2.145   0.002  0.00  0.00    -0.059 A 
ATOM      3  C3  <0> d          -0.017   1.428   0.010  0.00  0.00     0.066 A 
ATOM      4  C4  <0> d          -1.238   2.113   0.019  0.00  0.00     0.057 A 
ATOM      5  C5  <0> d          -1.252   3.491   0.032  0.00  0.00    -0.035 A 
ATOM      6  C6  <0> d          -0.055   4.200   0.024  0.00  0.00     0.027 A 
ATOM      7 Cl1  <0> d          -2.731   1.228   0.022  0.00  0.00    -0.083 Cl
ATOM      8  C7  <0> d           0.002  -0.004   0.002  0.00  0.00     0.101 C 
ATOM      9  N2  <0> d           0.018  -1.140  -0.004  0.00  0.00    -0.191 NA
ATOM     10  H1  <0> d           2.087   4.075   0.003  0.00  0.00     0.086 H 
ATOM     11  H2  <0> d           2.126   1.620  -0.009  0.00  0.00     0.086 H 
ATOM     12  H3  <0> d          -2.193   4.021   0.043  0.00  0.00     0.089 H 
ENDROOT
BRANCH   6  13
ATOM     13  N1  <0> d          -0.072   5.592   0.031  0.00  0.00    -0.399 N 
ATOM     14  H4  <0> d           0.761   6.087   0.025  0.00  0.00     0.156 HD
ATOM     15  H5  <0> d          -0.919   6.066   0.041  0.00  0.00     0.156 HD
ENDBRANCH   6  13
TORSDOF 1
