REMARK  2 active torsions:
REMARK  status: ('A' for Active; 'I' for Inactive)
REMARK    1  A    between atoms: C4_4  and  O2_8 
REMARK    2  A    between atoms: C6_6  and  O1_7 
ROOT
ATOM      1  C1  <0> d           2.404   0.017  -0.020  0.00  0.00    -0.031 A 
ATOM      2  C2  <0> d           2.390   1.413  -0.013  0.00  0.00     0.050 A 
ATOM      3  C3  <0> d           1.172   2.094   0.002  0.00  0.00    -0.031 A 
ATOM      4  C4  <0> d          -0.017   1.383   0.010  0.00  0.00     0.069 A 
ATOM      5  C5  <0> d           0.002  -0.004   0.002  0.00  0.00    -0.019 A 
ATOM      6  C6  <0> d           1.210  -0.685  -0.013  0.00  0.00     0.069 A 
ATOM      7  C7  <0> d           3.621   2.143  -0.021  0.00  0.00     0.099 C 
ATOM      8  N1  <0> d           4.598   2.723  -0.028  0.00  0.00    -0.191 NA
ATOM      9  H1  <0> d           3.344  -0.514  -0.032  0.00  0.00     0.090 H 
ATOM     10  H2  <0> d           1.156   3.174   0.008  0.00  0.00     0.090 H 
ATOM     11  H3  <0> d          -0.927  -0.555   0.008  0.00  0.00     0.092 H 
ENDROOT
BRANCH   6  12
ATOM     12  O1  <0> d           1.223  -2.045  -0.020  0.00  0.00    -0.361 OA
ATOM     13  H4  <0> d           1.219  -2.433  -0.906  0.00  0.00     0.217 HD
ENDBRANCH   6  12
BRANCH   4  14
ATOM     14  O2  <0> d          -1.203   2.046   0.019  0.00  0.00    -0.361 OA
ATOM     15  H5  <0> d          -1.543   2.232   0.905  0.00  0.00     0.217 HD
ENDBRANCH   4  14
TORSDOF 2
