REMARK  1 active torsions:
REMARK  status: ('A' for Active; 'I' for Inactive)
REMARK    1  A    between atoms: C6_6  and  C7_7 
ROOT
ATOM      1  C1  <0> d          -0.019   1.525   0.010  0.00  0.00    -0.052 C 
ATOM      2  C2  <0> d           1.419   2.055  -0.001  0.00  0.00    -0.057 C 
ATOM      3  C3  <0> d           2.148   1.484  -1.220  0.00  0.00    -0.040 A 
ATOM      4  C4  <0> d           2.109  -0.043  -1.341  0.00  0.00    -0.057 C 
ATOM      5  C5  <0> d           0.650  -0.507  -1.289  0.00  0.00    -0.052 C 
ATOM      6  C6  <0> d           0.002  -0.004   0.002  0.00  0.00     0.030 C 
ATOM      7  C8  <0> d           2.118   2.300  -2.512  0.00  0.00    -0.057 A 
ATOM      8  C9  <0> d           3.409   2.203  -1.696  0.00  0.00    -0.057 A 
ATOM      9  H1  <0> d          -0.529   1.877   0.907  0.00  0.00     0.034 H 
ATOM     10  H2  <0> d          -0.546   1.886  -0.873  0.00  0.00     0.034 H 
ATOM     11  H3  <0> d           1.406   3.143  -0.059  0.00  0.00     0.034 H 
ATOM     12  H4  <0> d           1.930   1.742   0.910  0.00  0.00     0.034 H 
ATOM     13  H5  <0> d           2.554  -0.345  -2.289  0.00  0.00     0.034 H 
ATOM     14  H6  <0> d           2.664  -0.489  -0.516  0.00  0.00     0.034 H 
ATOM     15  H7  <0> d           0.110  -0.106  -2.147  0.00  0.00     0.034 H 
ATOM     16  H8  <0> d           0.615  -1.596  -1.313  0.00  0.00     0.034 H 
ATOM     17  H9  <0> d           0.573  -0.363   0.858  0.00  0.00     0.056 H 
ATOM     18  H10 <0> d           2.075   1.751  -3.453  0.00  0.00     0.034 H 
ATOM     19  H11 <0> d           1.581   3.249  -2.495  0.00  0.00     0.034 H 
ATOM     20  H12 <0> d           3.722   3.089  -1.143  0.00  0.00     0.034 H 
ATOM     21  H13 <0> d           4.215   1.592  -2.101  0.00  0.00     0.034 H 
ENDROOT
BRANCH   6  22
ATOM     22  C7  <0> d          -1.409  -0.525   0.089  0.00  0.00     0.177 C 
ATOM     23  O1  <0> d          -1.699  -1.591  -0.426  0.00  0.00    -0.648 OA
ATOM     24  O2  <0> d          -2.262   0.120   0.676  0.00  0.00    -0.648 OA
ENDBRANCH   6  22
TORSDOF 1
