REMARK  2 active torsions:
REMARK  status: ('A' for Active; 'I' for Inactive)
REMARK    1  A    between atoms: C3_4  and  C5_7 
REMARK    2  A    between atoms: C5_7  and  O3_8 
ROOT
ATOM      1  C1  <0> d          -0.017   1.429   0.010  0.00  0.00     0.045 C 
ATOM      2  C2  <0> d           1.437   1.921  -0.001  0.00  0.00     0.046 C 
ATOM      3  O1  <0> d           2.101   1.363   1.139  0.00  0.00    -0.349 OA
ATOM      4  C3  <0> d           1.884   0.045   1.387  0.00  0.00     0.091 C 
ATOM      5  C4  <0> d           0.879  -0.607   0.847  0.00  0.00     0.042 C 
ATOM      6  O2  <0> d           0.002  -0.004   0.002  0.00  0.00    -0.358 OA
ATOM      7  H1  <0> d          -0.521   1.786   0.908  0.00  0.00     0.078 H 
ATOM      8  H2  <0> d          -0.538   1.795  -0.875  0.00  0.00     0.078 H 
ATOM      9  H3  <0> d           1.932   1.590  -0.914  0.00  0.00     0.078 H 
ATOM     10  H4  <0> d           1.458   3.010   0.056  0.00  0.00     0.078 H 
ATOM     11  H5  <0> d           0.746  -1.653   1.081  0.00  0.00     0.126 H 
ENDROOT
BRANCH   4  12
ATOM     12  C5  <0> d           2.822  -0.691   2.308  0.00  0.00     0.062 C 
ATOM     13  H6  <0> d           2.875  -0.170   3.264  0.00  0.00     0.084 H 
ATOM     14  H7  <0> d           2.456  -1.705   2.466  0.00  0.00     0.084 H 
BRANCH  12  15
ATOM     15  O3  <0> d           4.124  -0.741   1.721  0.00  0.00    -0.394 OA
ATOM     16  H8  <0> d           4.782  -1.201   2.260  0.00  0.00     0.209 HD
ENDBRANCH  12  15
ENDBRANCH   4  12
TORSDOF 2
