REMARK  1 active torsions:
REMARK  status: ('A' for Active; 'I' for Inactive)
REMARK    1  A    between atoms: C4_5  and  C6_7 
ROOT
ATOM      1  C1  <0> d          -0.017   1.382   0.010  0.00  0.00    -0.079 A 
ATOM      2  C2  <0> d           1.192   2.060   0.002  0.00  0.00    -0.066 A 
ATOM      3  C3  <0> d           2.376   1.338  -0.013  0.00  0.00     0.003 A 
ATOM      4  N1  <0> d           2.366   0.023  -0.020  0.00  0.00    -0.254 NA
ATOM      5  C4  <0> d           1.230  -0.664  -0.013  0.00  0.00     0.132 A 
ATOM      6  C5  <0> d           0.002  -0.004   0.002  0.00  0.00    -0.048 A 
ATOM      7  H1  <0> d          -0.952   1.921   0.026  0.00  0.00     0.083 H 
ATOM      8  H2  <0> d           1.212   3.139   0.007  0.00  0.00     0.085 H 
ATOM      9  H3  <0> d           3.320   1.863  -0.020  0.00  0.00     0.114 H 
ATOM     10  H4  <0> d          -0.921  -0.564   0.008  0.00  0.00     0.087 H 
ENDROOT
BRANCH   5  11
ATOM     11  C6  <0> d           1.267  -2.143  -0.022  0.00  0.00     0.228 C 
ATOM     12  O1  <0> d           2.341  -2.727  -0.035  0.00  0.00    -0.643 OA
ATOM     13  O2  <0> d           0.225  -2.781  -0.015  0.00  0.00    -0.643 OA
ENDBRANCH   5  11
TORSDOF 1
