REMARK  1 active torsions:
REMARK  status: ('A' for Active; 'I' for Inactive)
REMARK    1  A    between atoms: C4_4  and  C6_7 
ROOT
ATOM      1  C1  <0> d          -0.013   1.076   0.008  0.00  0.00    -0.063 A 
ATOM      2  C2  <0> d          -1.218   1.758   0.017  0.00  0.00    -0.042 A 
ATOM      3  C3  <0> d          -1.192   3.147   0.031  0.00  0.00     0.152 A 
ATOM      4  C4  <0> d           0.042   3.801   0.022  0.00  0.00     0.171 A 
ATOM      5  N1  <0> d           1.173   3.106   0.007  0.00  0.00    -0.251 NA
ATOM      6  C5  <0> d           1.175   1.792   0.001  0.00  0.00     0.003 A 
ATOM      7  F1  <0> d          -2.343   3.854   0.046  0.00  0.00    -0.203 F 
ATOM      8  H1  <0> d           0.002  -0.004   0.002  0.00  0.00     0.085 H 
ATOM      9  H2  <0> d          -2.156   1.223   0.019  0.00  0.00     0.088 H 
ATOM     10  H3  <0> d           2.116   1.261  -0.011  0.00  0.00     0.114 H 
ENDROOT
BRANCH   4  11
ATOM     11  C6  <0> d           0.089   5.279   0.029  0.00  0.00     0.232 C 
ATOM     12  O1  <0> d          -0.943   5.920   0.042  0.00  0.00    -0.643 OA
ATOM     13  O2  <0> d           1.276   5.916   0.020  0.00  0.00    -0.643 OA
ENDBRANCH   4  11
TORSDOF 1
