REMARK  4 active torsions:
REMARK  status: ('A' for Active; 'I' for Inactive)
REMARK    1  A    between atoms: C2_2  and  C3_3 
REMARK    2  A    between atoms: C3_3  and  C4_4 
REMARK    3  A    between atoms: C4_4  and  C5_6 
REMARK    4  A    between atoms: C4_4  and  O1_8 
ROOT
ATOM      1  C4  <0> d          -2.016   3.727  -1.150  0.00  0.00     0.054 C 
ATOM      2  H1  <0> d          -1.634   3.303  -2.078  0.00  0.00     0.089 H 
ENDROOT
BRANCH   1   3
ATOM      3  C3  <0> d          -1.176   3.222   0.025  0.00  0.00    -0.024 C 
ATOM      4  H5  <0> d          -1.611   3.575   0.961  0.00  0.00     0.043 H 
ATOM      5  H6  <0> d          -0.158   3.600  -0.067  0.00  0.00     0.043 H 
BRANCH   3   6
ATOM      6  C2  <0> d          -1.156   1.715   0.017  0.00  0.00    -0.109 C 
ATOM      7  C1  <0> d          -0.013   1.076   0.008  0.00  0.00    -0.125 C 
ATOM      8  H2  <0> d           0.002  -0.004   0.002  0.00  0.00     0.066 H 
ATOM      9  H3  <0> d           0.915   1.629   0.002  0.00  0.00     0.066 H 
ATOM     10  H4  <0> d          -2.084   1.163   0.018  0.00  0.00     0.075 H 
ENDBRANCH   3   6
ENDBRANCH   1   3
BRANCH   1  11
ATOM     11  C5  <0> d          -1.936   5.231  -1.214  0.00  0.00    -0.085 C 
ATOM     12  C6  <0> d          -1.459   5.816  -2.285  0.00  0.00    -0.122 C 
ATOM     13  H8  <0> d          -1.402   6.893  -2.331  0.00  0.00     0.066 H 
ATOM     14  H9  <0> d          -1.123   5.221  -3.121  0.00  0.00     0.066 H 
ATOM     15  H7  <0> d          -2.273   5.826  -0.378  0.00  0.00     0.079 H 
ENDBRANCH   1  11
BRANCH   1  16
ATOM     16  O1  <0> d          -3.377   3.330  -0.969  0.00  0.00    -0.391 OA
ATOM     17  H10 <0> d          -3.782   3.672  -0.160  0.00  0.00     0.210 HD
ENDBRANCH   1  16
TORSDOF 4
