REMARK  3 active torsions:
REMARK  status: ('A' for Active; 'I' for Inactive)
REMARK    1  A    between atoms: C4_4  and  N1_7 
REMARK    2  A    between atoms: N1_7  and  C7_8 
REMARK    3  A    between atoms: C7_8  and  C8_9 
REMARK       I    between atoms: C8_9  and  N2_11 
ROOT
ATOM      1  C1  <0> d          -1.133   6.060   1.901  0.00  0.00    -0.083 A 
ATOM      2  C2  <0> d          -1.638   5.151   2.812  0.00  0.00    -0.081 A 
ATOM      3  C3  <0> d          -1.498   3.795   2.588  0.00  0.00    -0.058 A 
ATOM      4  C4  <0> d          -0.848   3.345   1.445  0.00  0.00     0.028 A 
ATOM      5  C5  <0> d          -0.337   4.261   0.535  0.00  0.00    -0.058 A 
ATOM      6  C6  <0> d          -0.485   5.615   0.763  0.00  0.00    -0.081 A 
ATOM      7  H1  <0> d          -1.244   7.119   2.079  0.00  0.00     0.083 H 
ATOM      8  H2  <0> d          -2.144   5.501   3.700  0.00  0.00     0.083 H 
ATOM      9  H3  <0> d          -1.893   3.086   3.300  0.00  0.00     0.086 H 
ATOM     10  H4  <0> d           0.173   3.915  -0.352  0.00  0.00     0.086 H 
ATOM     11  H5  <0> d          -0.092   6.328   0.053  0.00  0.00     0.083 H 
ENDROOT
BRANCH   4  12
ATOM     12  N1  <0> d          -0.704   1.975   1.216  0.00  0.00    -0.381 N 
ATOM     13  H6  <0> d          -1.058   1.337   1.854  0.00  0.00     0.160 HD
BRANCH  12  14
ATOM     14  C7  <0> d          -0.018   1.503   0.010  0.00  0.00     0.066 C 
ATOM     15  H7  <0> d           1.004   1.880   0.003  0.00  0.00     0.078 H 
ATOM     16  H8  <0> d          -0.545   1.864  -0.873  0.00  0.00     0.078 H 
BRANCH  14  17
ATOM     17  C8  <0> d           0.002  -0.004   0.002  0.00  0.00     0.233 C 
ATOM     18  O1  <0> d          -0.506  -0.622   0.913  0.00  0.00    -0.272 OA
ATOM     19  N2  <0> d           0.585  -0.664  -1.018  0.00  0.00    -0.369 N 
ATOM     20  H9  <0> d           0.992  -0.170  -1.747  0.00  0.00     0.159 HD
ATOM     21  H10 <0> d           0.598  -1.634  -1.023  0.00  0.00     0.159 HD
ENDBRANCH  14  17
ENDBRANCH  12  14
ENDBRANCH   4  12
TORSDOF 3
