REMARK  2 active torsions:
REMARK  status: ('A' for Active; 'I' for Inactive)
REMARK    1  A    between atoms: C1_1  and  C2_2 
REMARK    2  A    between atoms: C4_4  and  C6_8 
ROOT
ATOM      1  C2  <0> d          -0.016   1.360   0.009  0.00  0.00     0.006 A 
ATOM      2  C3  <0> d           1.248   1.817  -0.000  0.00  0.00    -0.044 A 
ATOM      3  C4  <0> d           2.115   0.633  -0.015  0.00  0.00     0.058 A 
ATOM      4  C5  <0> d           1.270  -0.456  -0.013  0.00  0.00    -0.006 A 
ATOM      5  N1  <0> d           0.002  -0.004   0.002  0.00  0.00    -0.368 N 
ATOM      6  H1  <0> d          -0.943  -0.567   0.008  0.00  0.00     0.165 HD
ATOM      7  H5  <0> d           1.563   2.850   0.002  0.00  0.00     0.088 H 
ATOM      8  H6  <0> d           1.573  -1.492  -0.021  0.00  0.00     0.112 H 
ENDROOT
BRANCH   1   9
ATOM      9  C1  <0> d          -1.256   2.217   0.020  0.00  0.00    -0.037 C 
ATOM     10  H2  <0> d          -0.967   3.279   0.025  0.00  0.00     0.035 H 
ATOM     11  H3  <0> d          -1.848   1.995   0.920  0.00  0.00     0.035 H 
ATOM     12  H4  <0> d          -1.857   2.005  -0.876  0.00  0.00     0.035 H 
ENDBRANCH   1   9
BRANCH   3  13
ATOM     13  C6  <0> d           3.586   0.613  -0.029  0.00  0.00     0.210 C 
ATOM     14  O1  <0> d           4.208   1.657  -0.029  0.00  0.00    -0.644 OA
ATOM     15  O2  <0> d           4.244  -0.563  -0.042  0.00  0.00    -0.644 OA
ENDBRANCH   3  13
TORSDOF 2
