REMARK  8 active torsions:
REMARK  status: ('A' for Active; 'I' for Inactive)
REMARK    1  A    between atoms: C1_1  and  C2_2 
REMARK    2  A    between atoms: C2_2  and  O1_3 
REMARK    3  A    between atoms: O1_3  and  C3_4 
REMARK    4  A    between atoms: C3_4  and  C4_6 
REMARK    5  A    between atoms: C3_4  and  C5_7 
REMARK    6  A    between atoms: C5_7  and  O3_9 
REMARK    7  A    between atoms: O3_9  and  C6_10 
REMARK    8  A    between atoms: C6_10  and  C7_11 
ROOT
ATOM      1  C3  <0> d          -1.329   1.940   0.019  0.00  0.00     0.118 C 
ATOM      2  H1  <0> d          -1.400   2.570  -0.867  0.00  0.00     0.098 H 
ENDROOT
BRANCH   1   3
ATOM      3  O1  <0> d          -2.403   0.997   0.019  0.00  0.00    -0.377 OA
BRANCH   3   4
ATOM      4  C2  <0> d          -3.589   1.466  -0.626  0.00  0.00     0.017 C 
ATOM      5  H5  <0> d          -3.948   2.361  -0.119  0.00  0.00     0.073 H 
ATOM      6  H6  <0> d          -3.368   1.701  -1.667  0.00  0.00     0.073 H 
BRANCH   4   7
ATOM      7  C1  <0> d          -4.665   0.380  -0.566  0.00  0.00    -0.056 C 
ATOM      8  H2  <0> d          -4.886   0.144   0.475  0.00  0.00     0.030 H 
ATOM      9  H3  <0> d          -5.570   0.738  -1.058  0.00  0.00     0.030 H 
ATOM     10  H4  <0> d          -4.306  -0.516  -1.073  0.00  0.00     0.030 H 
ENDBRANCH   4   7
ENDBRANCH   3   4
ENDBRANCH   1   3
BRANCH   1  11
ATOM     11  C4  <0> d          -1.417   2.811   1.273  0.00  0.00    -0.043 C 
ATOM     12  H7  <0> d          -0.598   3.531   1.273  0.00  0.00     0.031 H 
ATOM     13  H8  <0> d          -2.368   3.344   1.281  0.00  0.00     0.031 H 
ATOM     14  H9  <0> d          -1.346   2.181   2.160  0.00  0.00     0.031 H 
ENDBRANCH   1  11
BRANCH   1  15
ATOM     15  C5  <0> d          -0.014   1.204   0.009  0.00  0.00     0.287 C 
ATOM     16  O2  <0> d           0.002  -0.004   0.002  0.00  0.00    -0.262 OA
BRANCH  15  17
ATOM     17  O3  <0> d           1.139   1.891   0.001  0.00  0.00    -0.320 OA
BRANCH  17  18
ATOM     18  C6  <0> d           2.367   1.117  -0.015  0.00  0.00     0.026 C 
ATOM     19  H10 <0> d           2.409   0.484   0.872  0.00  0.00     0.074 H 
ATOM     20  H11 <0> d           2.392   0.493  -0.908  0.00  0.00     0.074 H 
BRANCH  18  21
ATOM     21  C7  <0> d           3.568   2.065  -0.021  0.00  0.00    -0.056 C 
ATOM     22  H12 <0> d           3.526   2.698  -0.907  0.00  0.00     0.030 H 
ATOM     23  H13 <0> d           3.543   2.689   0.873  0.00  0.00     0.030 H 
ATOM     24  H14 <0> d           4.490   1.484  -0.033  0.00  0.00     0.030 H 
ENDBRANCH  18  21
ENDBRANCH  17  18
ENDBRANCH  15  17
ENDBRANCH   1  15
TORSDOF 8
