REMARK  3 active torsions:
REMARK  status: ('A' for Active; 'I' for Inactive)
REMARK    1  A    between atoms: C1_1  and  C2_2 
REMARK    2  A    between atoms: C4_7  and  C6_10 
REMARK    3  A    between atoms: C4_7  and  C7_11 
ROOT
ATOM      1  C2  <0> d           2.471   1.573   0.029  0.00  0.00     0.112 C 
ATOM      2  H1  <0> d           2.895   1.675   1.027  0.00  0.00     0.097 H 
ATOM      3  C3  <0> d           1.101   2.192   0.003  0.00  0.00     0.247 C 
ATOM      4  O1  <0> d           1.006   3.401  -0.024  0.00  0.00    -0.271 OA
ATOM      5  N1  <0> d          -0.018   1.457   0.010  0.00  0.00    -0.348 N 
ATOM      6  C4  <0> d           0.002  -0.004   0.002  0.00  0.00     0.047 C 
ATOM      7  C5  <0> d           1.379  -0.509   0.439  0.00  0.00     0.043 C 
ATOM      8  O2  <0> d           2.382   0.186  -0.310  0.00  0.00    -0.374 OA
ATOM      9  H5  <0> d          -0.875   1.911   0.017  0.00  0.00     0.163 HD
ATOM     10  H6  <0> d           1.518  -0.317   1.503  0.00  0.00     0.078 H 
ATOM     11  H7  <0> d           1.454  -1.579   0.246  0.00  0.00     0.078 H 
ENDROOT
BRANCH   6  12
ATOM     12  C6  <0> d          -1.063  -0.532   0.966  0.00  0.00    -0.051 C 
ATOM     13  H8  <0> d          -2.045  -0.179   0.651  0.00  0.00     0.030 H 
ATOM     14  H9  <0> d          -1.049  -1.622   0.961  0.00  0.00     0.030 H 
ATOM     15  H10 <0> d          -0.853  -0.171   1.972  0.00  0.00     0.030 H 
ENDBRANCH   6  12
BRANCH   6  16
ATOM     16  C7  <0> d          -0.299  -0.508  -1.411  0.00  0.00    -0.051 C 
ATOM     17  H11 <0> d           0.456  -0.130  -2.100  0.00  0.00     0.030 H 
ATOM     18  H12 <0> d          -0.285  -1.598  -1.418  0.00  0.00     0.030 H 
ATOM     19  H13 <0> d          -1.283  -0.156  -1.720  0.00  0.00     0.030 H 
ENDBRANCH   6  16
BRANCH   1  20
ATOM     20  C1  <0> d           3.370   2.287  -0.982  0.00  0.00    -0.044 C 
ATOM     21  H2  <0> d           2.948   2.183  -1.982  0.00  0.00     0.031 H 
ATOM     22  H3  <0> d           3.439   3.344  -0.725  0.00  0.00     0.031 H 
ATOM     23  H4  <0> d           4.365   1.842  -0.960  0.00  0.00     0.031 H 
ENDBRANCH   1  20
TORSDOF 3
