REMARK  3 active torsions:
REMARK  status: ('A' for Active; 'I' for Inactive)
REMARK    1  A    between atoms: C1_1  and  S1_2 
REMARK    2  A    between atoms: S1_2  and  C2_3 
REMARK    3  A    between atoms: C3_5  and  N4_9 
ROOT
ATOM      1  C2  <0> d           0.848  -0.411  -1.489  0.00  0.00     0.225 A 
ATOM      2  N1  <0> d           1.102  -1.650  -1.926  0.00  0.00    -0.035 NA
ATOM      3  C3  <0> d           1.749  -1.591  -3.070  0.00  0.00     0.716 A 
ATOM      4  N2  <0> d           1.921  -0.291  -3.386  0.00  0.00    -0.105 N 
ATOM      5  H1  <0> d           2.365   0.062  -4.174  0.00  0.00     0.208 HD
ATOM      6  N3  <0> d           1.327   0.452  -2.353  0.00  0.00    -0.132 NA
ENDROOT
BRANCH   1   7
ATOM      7  S1  <0> d           0.002  -0.004   0.002  0.00  0.00    -0.092 SA
BRANCH   7   8
ATOM      8  C1  <0> d          -0.022   1.810   0.012  0.00  0.00    -0.027 C 
ATOM      9  H2  <0> d           1.000   2.187   0.004  0.00  0.00     0.042 H 
ATOM     10  H3  <0> d          -0.550   2.171  -0.871  0.00  0.00     0.042 H 
ATOM     11  H4  <0> d          -0.533   2.161   0.909  0.00  0.00     0.042 H 
ENDBRANCH   7   8
ENDBRANCH   1   7
BRANCH   3  12
ATOM     12  N4  <0> d           2.179  -2.673  -3.818  0.00  0.00    -0.231 N 
ATOM     13  H5  <0> d           2.007  -3.576  -3.507  0.00  0.00     0.174 HD
ATOM     14  H6  <0> d           2.651  -2.529  -4.653  0.00  0.00     0.174 HD
ENDBRANCH   3  12
TORSDOF 3
