REMARK  4 active torsions:
REMARK  status: ('A' for Active; 'I' for Inactive)
REMARK    1  A    between atoms: C1_1  and  C2_2 
REMARK    2  A    between atoms: C2_2  and  C3_3 
REMARK    3  A    between atoms: C4_4  and  C6_9 
REMARK    4  A    between atoms: C5_5  and  N2_8 
ROOT
ATOM      1  C3  <0> d          -0.016   1.300   0.009  0.00  0.00     0.072 A 
ATOM      2  C4  <0> d           1.329   1.719  -0.001  0.00  0.00     0.018 A 
ATOM      3  C5  <0> d           2.038   0.551  -0.014  0.00  0.00     0.174 A 
ATOM      4  O1  <0> d           1.130  -0.439  -0.011  0.00  0.00    -0.195 OA
ATOM      5  N1  <0> d           0.002  -0.004   0.002  0.00  0.00    -0.130 NA
ENDROOT
BRANCH   1   6
ATOM      6  C2  <0> d          -1.236   2.184   0.020  0.00  0.00    -0.025 C 
ATOM      7  H4  <0> d          -1.010   3.121  -0.490  0.00  0.00     0.042 H 
ATOM      8  H5  <0> d          -2.055   1.680  -0.492  0.00  0.00     0.042 H 
BRANCH   6   9
ATOM      9  C1  <0> d          -1.641   2.476   1.466  0.00  0.00    -0.071 C 
ATOM     10  H1  <0> d          -1.867   1.540   1.976  0.00  0.00     0.028 H 
ATOM     11  H2  <0> d          -0.822   2.981   1.978  0.00  0.00     0.028 H 
ATOM     12  H3  <0> d          -2.523   3.116   1.474  0.00  0.00     0.028 H 
ENDBRANCH   6   9
ENDBRANCH   1   6
BRANCH   2  13
ATOM     13  C6  <0> d           1.862   3.129   0.001  0.00  0.00    -0.045 C 
ATOM     14  H8  <0> d           2.000   3.463   1.029  0.00  0.00     0.033 H 
ATOM     15  H9  <0> d           2.818   3.156  -0.522  0.00  0.00     0.033 H 
ATOM     16  H10 <0> d           1.153   3.786  -0.503  0.00  0.00     0.033 H 
ENDBRANCH   2  13
BRANCH   3  17
ATOM     17  N2  <0> d           3.413   0.415  -0.028  0.00  0.00    -0.378 N 
ATOM     18  H6  <0> d           3.813  -0.469  -0.036  0.00  0.00     0.158 HD
ATOM     19  H7  <0> d           3.979   1.203  -0.030  0.00  0.00     0.158 HD
ENDBRANCH   3  17
TORSDOF 4
