REMARK  7 active torsions:
REMARK  status: ('A' for Active; 'I' for Inactive)
REMARK    1  A    between atoms: C1_1  and  C2_2 
REMARK    2  A    between atoms: C2_2  and  C3_4 
REMARK    3  A    between atoms: C2_2  and  C7_8 
REMARK    4  A    between atoms: C3_4  and  C4_5 
REMARK    5  A    between atoms: C4_5  and  C5_6 
REMARK    6  A    between atoms: C4_5  and  C6_7 
REMARK    7  A    between atoms: C7_8  and  C8_9 
ROOT
ATOM      1  C3  <0> d          -1.433  -0.534   0.013  0.00  0.00    -0.059 C 
ATOM      2  H5  <0> d          -1.419  -1.620   0.097  0.00  0.00     0.034 H 
ATOM      3  H6  <0> d          -1.970  -0.111   0.862  0.00  0.00     0.034 H 
ENDROOT
BRANCH   1   4
ATOM      4  C2  <0> d           0.002  -0.004   0.002  0.00  0.00    -0.048 C 
ATOM      5  H1  <0> d           0.512  -0.356  -0.895  0.00  0.00     0.040 H 
BRANCH   4   6
ATOM      6  C1  <0> d          -0.019   1.526   0.010  0.00  0.00    -0.072 C 
ATOM      7  H2  <0> d           1.004   1.903   0.003  0.00  0.00     0.028 H 
ATOM      8  H3  <0> d          -0.546   1.887  -0.873  0.00  0.00     0.028 H 
ATOM      9  H4  <0> d          -0.529   1.877   0.907  0.00  0.00     0.028 H 
ENDBRANCH   4   6
BRANCH   4  10
ATOM     10  C7  <0> d           0.742  -0.511   1.242  0.00  0.00     0.019 C 
ATOM     11  H14 <0> d           0.285  -0.087   2.136  0.00  0.00     0.049 H 
ATOM     12  H15 <0> d           0.680  -1.598   1.282  0.00  0.00     0.049 H 
BRANCH  10  13
ATOM     13  C8  <0> d           2.188  -0.092   1.170  0.00  0.00     0.172 C 
ATOM     14  O1  <0> d           2.589   0.552   0.215  0.00  0.00    -0.648 OA
ATOM     15  O2  <0> d           2.956  -0.398   2.066  0.00  0.00    -0.648 OA
ENDBRANCH  10  13
ENDBRANCH   4  10
ENDBRANCH   1   4
BRANCH   1  16
ATOM     16  C4  <0> d          -2.135  -0.131  -1.286  0.00  0.00    -0.061 C 
ATOM     17  H7  <0> d          -2.072   0.949  -1.413  0.00  0.00     0.038 H 
BRANCH  16  18
ATOM     18  C5  <0> d          -1.457  -0.825  -2.468  0.00  0.00    -0.073 C 
ATOM     19  H8  <0> d          -1.957  -0.538  -3.393  0.00  0.00     0.028 H 
ATOM     20  H9  <0> d          -0.410  -0.526  -2.514  0.00  0.00     0.028 H 
ATOM     21  H10 <0> d          -1.520  -1.906  -2.341  0.00  0.00     0.028 H 
ENDBRANCH  16  18
BRANCH  16  22
ATOM     22  C6  <0> d          -3.605  -0.552  -1.222  0.00  0.00    -0.073 C 
ATOM     23  H11 <0> d          -4.088  -0.057  -0.380  0.00  0.00     0.028 H 
ATOM     24  H12 <0> d          -4.105  -0.265  -2.148  0.00  0.00     0.028 H 
ATOM     25  H13 <0> d          -3.669  -1.632  -1.095  0.00  0.00     0.028 H 
ENDBRANCH  16  22
ENDBRANCH   1  16
TORSDOF 7
