REMARK  0 active torsions:
REMARK  status: ('A' for Active; 'I' for Inactive)
ROOT
ATOM      1  C1  <0> d          -1.221   1.741   0.017  0.00  0.00    -0.033 A 
ATOM      2  C2  <0> d          -0.013   1.076   0.008  0.00  0.00     0.004 A 
ATOM      3  N1  <0> d           1.126   1.743   0.001  0.00  0.00    -0.272 NA
ATOM      4  C3  <0> d           1.160   3.062   0.009  0.00  0.00     0.011 A 
ATOM      5  C4  <0> d          -0.008   3.800   0.025  0.00  0.00    -0.007 A 
ATOM      6  C5  <0> d          -1.226   3.135   0.030  0.00  0.00     0.077 A 
ATOM      7  O1  <0> d          -2.406   3.798   0.040  0.00  0.00    -0.350 OA
ATOM      8  C6  <0> d          -2.391   5.176   0.419  0.00  0.00     0.026 C 
ATOM      9  C7  <0> d          -1.289   5.887  -0.376  0.00  0.00    -0.041 C 
ATOM     10  C8  <0> d           0.063   5.304   0.043  0.00  0.00    -0.035 C 
ATOM     11  H1  <0> d          -2.150   1.190   0.018  0.00  0.00     0.090 H 
ATOM     12  H2  <0> d           0.002  -0.004   0.002  0.00  0.00     0.114 H 
ATOM     13  H3  <0> d           2.112   3.571   0.002  0.00  0.00     0.115 H 
ATOM     14  H4  <0> d          -3.368   5.629   0.195  0.00  0.00     0.075 H 
ATOM     15  H5  <0> d          -2.188   5.257   1.498  0.00  0.00     0.075 H 
ATOM     16  H6  <0> d          -1.451   5.725  -1.452  0.00  0.00     0.036 H 
ATOM     17  H7  <0> d          -1.318   6.965  -0.159  0.00  0.00     0.036 H 
ATOM     18  H8  <0> d           0.311   5.647   1.058  0.00  0.00     0.040 H 
ATOM     19  H9  <0> d           0.840   5.642  -0.658  0.00  0.00     0.040 H 
ENDROOT
TORSDOF 0
