REMARK  3 active torsions:
REMARK  status: ('A' for Active; 'I' for Inactive)
REMARK    1  A    between atoms: C1_1  and  C2_2 
REMARK    2  A    between atoms: C5_5  and  C8_9 
REMARK    3  A    between atoms: C8_9  and  C9_11 
ROOT
ATOM      1  C2  <0> d           2.397   0.033  -0.021  0.00  0.00    -0.059 A 
ATOM      2  C3  <0> d           1.206  -0.673  -0.013  0.00  0.00    -0.076 A 
ATOM      3  C4  <0> d           0.002  -0.004   0.002  0.00  0.00    -0.066 A 
ATOM      4  C5  <0> d          -0.017   1.395   0.010  0.00  0.00     0.048 A 
ATOM      5  C6  <0> d           1.192   2.104   0.002  0.00  0.00     0.130 A 
ATOM      6  C7  <0> d           2.391   1.415  -0.013  0.00  0.00    -0.039 A 
ATOM      7  F1  <0> d           1.186   3.455   0.009  0.00  0.00    -0.205 F 
ATOM      8  H4  <0> d           1.221  -1.753  -0.019  0.00  0.00     0.084 H 
ATOM      9  H5  <0> d          -0.925  -0.558   0.007  0.00  0.00     0.085 H 
ATOM     10  H6  <0> d           3.324   1.959  -0.019  0.00  0.00     0.089 H 
ENDROOT
BRANCH   4  11
ATOM     11  C8  <0> d          -1.297   2.117   0.020  0.00  0.00     0.158 C 
ATOM     12  O1  <0> d          -1.310   3.330   0.026  0.00  0.00    -0.293 OA
BRANCH  11  13
ATOM     13  C9  <0> d          -2.595   1.351   0.022  0.00  0.00    -0.016 C 
ATOM     14  H7  <0> d          -2.638   0.771   0.835  0.00  0.00     0.038 H 
ATOM     15  H8  <0> d          -3.430   2.050   0.029  0.00  0.00     0.038 H 
ATOM     16  H9  <0> d          -2.650   0.728  -0.871  0.00  0.00     0.038 H 
ENDBRANCH  11  13
ENDBRANCH   4  11
BRANCH   1  17
ATOM     17  C1  <0> d           3.709  -0.709  -0.038  0.00  0.00    -0.051 C 
ATOM     18  H1  <0> d           4.015  -0.882  -1.069  0.00  0.00     0.033 H 
ATOM     19  H2  <0> d           4.468  -0.117   0.472  0.00  0.00     0.033 H 
ATOM     20  H3  <0> d           3.591  -1.666   0.472  0.00  0.00     0.033 H 
ENDBRANCH   1  17
TORSDOF 3
