REMARK  4 active torsions:
REMARK  status: ('A' for Active; 'I' for Inactive)
REMARK    1  A    between atoms: C1_1  and  C2_2 
REMARK    2  A    between atoms: C2_2  and  C3_4 
REMARK    3  A    between atoms: C2_2  and  N1_6 
REMARK       I    between atoms: N1_6  and  C4_7 
REMARK    4  A    between atoms: C4_7  and  C5_9 
ROOT
ATOM      1  C2  <0> d           1.235   3.094   0.007  0.00  0.00     0.092 C 
ATOM      2  H1  <0> d           0.744   3.473   0.904  0.00  0.00     0.089 H 
ENDROOT
BRANCH   1   3
ATOM      3  C1  <0> d           0.522   3.639  -1.233  0.00  0.00    -0.048 C 
ATOM      4  H2  <0> d           0.564   4.728  -1.227  0.00  0.00     0.030 H 
ATOM      5  H3  <0> d           1.013   3.260  -2.130  0.00  0.00     0.030 H 
ATOM      6  H4  <0> d          -0.519   3.315  -1.224  0.00  0.00     0.030 H 
ENDBRANCH   1   3
BRANCH   1   7
ATOM      7  C3  <0> d           1.177   1.588  -0.001  0.00  0.00     0.196 C 
ATOM      8  O1  <0> d           2.199   0.944  -0.014  0.00  0.00    -0.646 OA
ATOM      9  O3  <0> d          -0.011   0.963   0.007  0.00  0.00    -0.646 OA
ENDBRANCH   1   7
BRANCH   1  10
ATOM     10  N1  <0> d           2.634   3.529  -0.004  0.00  0.00    -0.347 N 
ATOM     11  C4  <0> d           2.969   4.736   0.492  0.00  0.00     0.214 C 
ATOM     12  O2  <0> d           2.111   5.463   0.949  0.00  0.00    -0.274 OA
ATOM     13  H5  <0> d           3.320   2.947  -0.369  0.00  0.00     0.163 HD
BRANCH  11  14
ATOM     14  C5  <0> d           4.408   5.183   0.481  0.00  0.00    -0.003 C 
ATOM     15  H6  <0> d           4.617   5.711  -0.450  0.00  0.00     0.040 H 
ATOM     16  H7  <0> d           4.588   5.849   1.325  0.00  0.00     0.040 H 
ATOM     17  H8  <0> d           5.059   4.313   0.560  0.00  0.00     0.040 H 
ENDBRANCH  11  14
ENDBRANCH   1  10
TORSDOF 4
