REMARK  4 active torsions:
REMARK  status: ('A' for Active; 'I' for Inactive)
REMARK    1  A    between atoms: C1_1  and  C2_2 
REMARK    2  A    between atoms: C3_3  and  C7_9 
REMARK    3  A    between atoms: C5_5  and  C6_7 
REMARK    4  A    between atoms: C6_7  and  O2_8 
ROOT
ATOM      1  C2  <0> d          -3.348  -1.247   0.786  0.00  0.00     0.066 A 
ATOM      2  C3  <0> d          -3.448  -1.272  -0.575  0.00  0.00     0.072 A 
ATOM      3  C4  <0> d          -2.154  -0.784  -1.075  0.00  0.00    -0.033 A 
ATOM      4  C5  <0> d          -1.412  -0.526   0.013  0.00  0.00     0.077 A 
ATOM      5  O1  <0> d          -2.131  -0.800   1.112  0.00  0.00    -0.317 OA
ATOM      6  H4  <0> d          -1.860  -0.661  -2.107  0.00  0.00     0.089 H 
ENDROOT
BRANCH   4   7
ATOM      7  C6  <0> d           0.002  -0.004   0.002  0.00  0.00     0.061 C 
ATOM      8  H5  <0> d           0.512  -0.356  -0.895  0.00  0.00     0.084 H 
ATOM      9  H6  <0> d           0.529  -0.365   0.885  0.00  0.00     0.084 H 
BRANCH   7  10
ATOM     10  O2  <0> d          -0.017   1.425   0.010  0.00  0.00    -0.394 OA
ATOM     11  H7  <0> d           0.861   1.830   0.004  0.00  0.00     0.209 HD
ENDBRANCH   7  10
ENDBRANCH   4   7
BRANCH   2  12
ATOM     12  C7  <0> d          -4.609  -1.694  -1.375  0.00  0.00     0.211 C 
ATOM     13  O3  <0> d          -5.623  -2.074  -0.821  0.00  0.00    -0.644 OA
ATOM     14  O4  <0> d          -4.549  -1.661  -2.721  0.00  0.00    -0.644 OA
ENDBRANCH   2  12
BRANCH   1  15
ATOM     15  C1  <0> d          -4.427  -1.653   1.757  0.00  0.00    -0.030 C 
ATOM     16  H1  <0> d          -4.064  -1.528   2.777  0.00  0.00     0.036 H 
ATOM     17  H2  <0> d          -5.307  -1.027   1.605  0.00  0.00     0.036 H 
ATOM     18  H3  <0> d          -4.691  -2.697   1.591  0.00  0.00     0.036 H 
ENDBRANCH   1  15
TORSDOF 4
