REMARK  4 active torsions:
REMARK  status: ('A' for Active; 'I' for Inactive)
REMARK    1  A    between atoms: C1_1  and  C2_2 
REMARK    2  A    between atoms: C2_2  and  O1_3 
REMARK    3  A    between atoms: O1_3  and  C3_4 
REMARK    4  A    between atoms: C3_4  and  C4_6 
ROOT
ATOM      1  C3  <0> d          -2.513   1.048   0.019  0.00  0.00     0.312 C 
ATOM      2  O2  <0> d          -2.527  -0.166   0.013  0.00  0.00    -0.258 OA
ENDROOT
BRANCH   1   3
ATOM      3  O1  <0> d          -3.672   1.734   0.029  0.00  0.00    -0.317 OA
BRANCH   3   4
ATOM      4  C2  <0> d          -4.898   0.958   0.030  0.00  0.00     0.026 C 
ATOM      5  H4  <0> d          -4.934   0.334  -0.863  0.00  0.00     0.074 H 
ATOM      6  H5  <0> d          -4.926   0.324   0.917  0.00  0.00     0.074 H 
BRANCH   4   7
ATOM      7  C1  <0> d          -6.101   1.903   0.041  0.00  0.00    -0.056 C 
ATOM      8  H1  <0> d          -7.022   1.320   0.042  0.00  0.00     0.030 H 
ATOM      9  H2  <0> d          -6.065   2.527   0.934  0.00  0.00     0.030 H 
ATOM     10  H3  <0> d          -6.073   2.536  -0.846  0.00  0.00     0.030 H 
ENDBRANCH   4   7
ENDBRANCH   3   4
ENDBRANCH   1   3
BRANCH   1  11
ATOM     11  C4  <0> d          -1.220   1.776   0.017  0.00  0.00     0.134 A 
ATOM     12  N2  <0> d          -1.192   3.106   0.029  0.00  0.00    -0.236 NA
ATOM     13  C7  <0> d          -0.047   3.755   0.022  0.00  0.00     0.087 A 
ATOM     14  N1  <0> d           1.111   3.125   0.008  0.00  0.00    -0.254 NA
ATOM     15  H8  <0> d          -0.057   4.835   0.028  0.00  0.00     0.146 H 
ATOM     16  C6  <0> d           1.169   1.804   0.001  0.00  0.00     0.006 A 
ATOM     17  C5  <0> d          -0.013   1.076   0.008  0.00  0.00    -0.032 A 
ATOM     18  H7  <0> d           2.123   1.298  -0.011  0.00  0.00     0.114 H 
ATOM     19  H6  <0> d           0.002  -0.004   0.002  0.00  0.00     0.089 H 
ENDBRANCH   1  11
TORSDOF 4
