REMARK  7 active torsions:
REMARK  status: ('A' for Active; 'I' for Inactive)
REMARK    1  A    between atoms: C1_1  and  C2_2 
REMARK    2  A    between atoms: C2_2  and  O1_3 
REMARK    3  A    between atoms: O1_3  and  C3_4 
REMARK    4  A    between atoms: C5_7  and  C6_9 
REMARK    5  A    between atoms: C6_9  and  O3_11 
REMARK    6  A    between atoms: O3_11  and  C7_12 
REMARK    7  A    between atoms: C7_12  and  C8_13 
ROOT
ATOM      1  C3  <0> d           1.317   0.779  -0.006  0.00  0.00     0.051 A 
ATOM      2  H1  <0> d           2.237   0.795  -0.608  0.00  0.00     0.084 H 
ATOM      3  C4  <0> d           0.002  -0.004   0.002  0.00  0.00    -0.026 A 
ATOM      4  C5  <0> d          -0.019   1.526   0.010  0.00  0.00     0.058 A 
ATOM      5  H2  <0> d          -0.488   2.307  -0.606  0.00  0.00     0.059 H 
ATOM      6  H8  <0> d          -0.056  -0.632  -0.899  0.00  0.00     0.038 H 
ATOM      7  H9  <0> d          -0.039  -0.642   0.897  0.00  0.00     0.038 H 
ENDROOT
BRANCH   4   8
ATOM      8  C6  <0> d          -0.418   2.209   1.293  0.00  0.00     0.265 C 
ATOM      9  O2  <0> d           0.308   2.154   2.258  0.00  0.00    -0.265 OA
BRANCH   8  10
ATOM     10  O3  <0> d          -1.579   2.879   1.363  0.00  0.00    -0.321 OA
BRANCH  10  11
ATOM     11  C7  <0> d          -1.898   3.513   2.630  0.00  0.00     0.025 C 
ATOM     12  H10 <0> d          -1.949   2.749   3.420  0.00  0.00     0.074 H 
ATOM     13  H11 <0> d          -1.118   4.247   2.880  0.00  0.00     0.074 H 
BRANCH  11  14
ATOM     14  C8  <0> d          -3.249   4.223   2.519  0.00  0.00    -0.056 C 
ATOM     15  H12 <0> d          -3.491   4.703   3.479  0.00  0.00     0.030 H 
ATOM     16  H13 <0> d          -4.029   3.489   2.269  0.00  0.00     0.030 H 
ATOM     17  H14 <0> d          -3.198   4.987   1.729  0.00  0.00     0.030 H 
ENDBRANCH  11  14
ENDBRANCH  10  11
ENDBRANCH   8  10
ENDBRANCH   4   8
BRANCH   1  18
ATOM     18  O1  <0> d           2.090   0.783   1.195  0.00  0.00    -0.385 OA
BRANCH  18  19
ATOM     19  C2  <0> d           3.500   0.705   0.979  0.00  0.00     0.017 C 
ATOM     20  H6  <0> d           3.828   1.567   0.380  0.00  0.00     0.073 H 
ATOM     21  H7  <0> d           3.738  -0.226   0.443  0.00  0.00     0.073 H 
BRANCH  19  22
ATOM     22  C1  <0> d           4.224   0.716   2.327  0.00  0.00    -0.056 C 
ATOM     23  H3  <0> d           5.310   0.656   2.160  0.00  0.00     0.030 H 
ATOM     24  H4  <0> d           3.897  -0.146   2.926  0.00  0.00     0.030 H 
ATOM     25  H5  <0> d           3.986   1.647   2.863  0.00  0.00     0.030 H 
ENDBRANCH  19  22
ENDBRANCH  18  19
ENDBRANCH   1  18
TORSDOF 7
