REMARK  2 active torsions:
REMARK  status: ('A' for Active; 'I' for Inactive)
REMARK    1  A    between atoms: C1_1  and  C2_2 
REMARK       I    between atoms: N1_7  and  C7_9 
REMARK    2  A    between atoms: C7_9  and  C8_11 
ROOT
ATOM      1  C2  <0> d           1.413   1.988   0.001  0.00  0.00    -0.042 C 
ATOM      2  H1  <0> d           1.904   1.709   0.933  0.00  0.00     0.042 H 
ATOM      3  C3  <0> d           2.172   1.375  -1.179  0.00  0.00    -0.059 C 
ATOM      4  C4  <0> d           2.212  -0.147  -1.026  0.00  0.00    -0.050 C 
ATOM      5  C5  <0> d           0.781  -0.695  -1.035  0.00  0.00    -0.002 C 
ATOM      6  N1  <0> d           0.004  -0.004   0.003  0.00  0.00    -0.352 N 
ATOM      7  C6  <0> d          -0.026   1.465   0.003  0.00  0.00     0.001 C 
ATOM      8  C7  <0> d          -0.668  -0.705   0.938  0.00  0.00     0.215 C 
ATOM      9  O1  <0> d          -1.222  -0.126   1.849  0.00  0.00    -0.274 OA
ATOM     10  H5  <0> d           3.190   1.765  -1.198  0.00  0.00     0.033 H 
ATOM     11  H6  <0> d           1.667   1.634  -2.109  0.00  0.00     0.033 H 
ATOM     12  H7  <0> d           2.695  -0.406  -0.084  0.00  0.00     0.035 H 
ATOM     13  H8  <0> d           2.772  -0.581  -1.854  0.00  0.00     0.035 H 
ATOM     14  H9  <0> d           0.798  -1.765  -0.828  0.00  0.00     0.064 H 
ATOM     15  H10 <0> d           0.327  -0.516  -2.010  0.00  0.00     0.064 H 
ATOM     16  H11 <0> d          -0.546   1.819  -0.887  0.00  0.00     0.065 H 
ATOM     17  H12 <0> d          -0.542   1.819   0.896  0.00  0.00     0.065 H 
ENDROOT
BRANCH   8  18
ATOM     18  C8  <0> d          -0.732  -2.208   0.852  0.00  0.00    -0.003 C 
ATOM     19  H13 <0> d          -0.109  -2.551   0.025  0.00  0.00     0.040 H 
ATOM     20  H14 <0> d          -0.369  -2.641   1.784  0.00  0.00     0.040 H 
ATOM     21  H15 <0> d          -1.763  -2.519   0.684  0.00  0.00     0.040 H 
ENDBRANCH   8  18
BRANCH   1  22
ATOM     22  C1  <0> d           1.403   3.512  -0.136  0.00  0.00    -0.071 C 
ATOM     23  H2  <0> d           0.860   3.948   0.703  0.00  0.00     0.028 H 
ATOM     24  H3  <0> d           2.427   3.884  -0.138  0.00  0.00     0.028 H 
ATOM     25  H4  <0> d           0.914   3.790  -1.069  0.00  0.00     0.028 H 
ENDBRANCH   1  22
TORSDOF 2
