REMARK  4 active torsions:
REMARK  status: ('A' for Active; 'I' for Inactive)
REMARK    1  A    between atoms: C1_1  and  C2_2 
REMARK    2  A    between atoms: C4_4  and  O1_10 
REMARK    3  A    between atoms: C6_6  and  C8_9 
REMARK    4  A    between atoms: C7_7  and  N1_8 
ROOT
ATOM      1  C2  <0> d           1.207  -0.679  -0.013  0.00  0.00    -0.033 A 
ATOM      2  C3  <0> d           0.002  -0.004   0.002  0.00  0.00    -0.043 A 
ATOM      3  C4  <0> d          -0.017   1.383   0.010  0.00  0.00     0.066 A 
ATOM      4  C5  <0> d           1.174   2.093   0.002  0.00  0.00    -0.043 A 
ATOM      5  C6  <0> d           2.380   1.420  -0.013  0.00  0.00    -0.033 A 
ATOM      6  C7  <0> d           2.400   0.032  -0.021  0.00  0.00     0.037 A 
ATOM      7  H4  <0> d          -0.926  -0.557   0.008  0.00  0.00     0.088 H 
ATOM      8  H5  <0> d           1.159   3.173   0.008  0.00  0.00     0.088 H 
ENDROOT
BRANCH   1   9
ATOM      9  C1  <0> d           1.227  -2.186  -0.023  0.00  0.00    -0.049 C 
ATOM     10  H1  <0> d           1.222  -2.543  -1.053  0.00  0.00     0.033 H 
ATOM     11  H2  <0> d           2.127  -2.540   0.480  0.00  0.00     0.033 H 
ATOM     12  H3  <0> d           0.347  -2.564   0.497  0.00  0.00     0.033 H 
ENDBRANCH   1   9
BRANCH   6  13
ATOM     13  N1  <0> d           3.622  -0.651  -0.036  0.00  0.00    -0.398 N 
ATOM     14  H6  <0> d           3.635  -1.621  -0.042  0.00  0.00     0.156 HD
ATOM     15  H7  <0> d           4.455  -0.154  -0.042  0.00  0.00     0.156 HD
ENDBRANCH   6  13
BRANCH   5  16
ATOM     16  C8  <0> d           3.674   2.193  -0.021  0.00  0.00    -0.049 C 
ATOM     17  H8  <0> d           3.977   2.385  -1.050  0.00  0.00     0.033 H 
ATOM     18  H9  <0> d           3.535   3.140   0.500  0.00  0.00     0.033 H 
ATOM     19  H10 <0> d           4.447   1.612   0.483  0.00  0.00     0.033 H 
ENDBRANCH   5  16
BRANCH   3  20
ATOM     20  O1  <0> d          -1.204   2.046   0.019  0.00  0.00    -0.361 OA
ATOM     21  H11 <0> d          -1.543   2.233   0.905  0.00  0.00     0.217 HD
ENDBRANCH   3  20
TORSDOF 4
