REMARK  9 active torsions:
REMARK  status: ('A' for Active; 'I' for Inactive)
REMARK    1  A    between atoms: C1_1  and  C2_2 
REMARK    2  A    between atoms: C2_2  and  C3_3 
REMARK    3  A    between atoms: C3_3  and  C4_5 
REMARK    4  A    between atoms: C3_3  and  C8_11 
REMARK    5  A    between atoms: C4_5  and  C5_6 
REMARK    6  A    between atoms: C5_6  and  C6_8 
REMARK    7  A    between atoms: C5_6  and  O1_10 
REMARK    8  A    between atoms: C6_8  and  C7_9 
REMARK    9  A    between atoms: C8_11  and  O2_12 
ROOT
ATOM      1  C3  <0> d          -0.127   0.836   5.055  0.00  0.00    -0.032 C 
ATOM      2  H1  <0> d          -0.055  -0.251   5.001  0.00  0.00     0.043 H 
ENDROOT
BRANCH   1   3
ATOM      3  C2  <0> d           1.278   1.436   5.135  0.00  0.00    -0.063 C 
ATOM      4  H6  <0> d           1.748   1.137   6.072  0.00  0.00     0.033 H 
ATOM      5  H7  <0> d           1.876   1.076   4.298  0.00  0.00     0.033 H 
BRANCH   3   6
ATOM      6  C1  <0> d           1.185   2.962   5.076  0.00  0.00    -0.076 C 
ATOM      7  H3  <0> d           0.674   3.260   4.160  0.00  0.00     0.027 H 
ATOM      8  H4  <0> d           0.627   3.326   5.939  0.00  0.00     0.027 H 
ATOM      9  H5  <0> d           2.188   3.388   5.086  0.00  0.00     0.027 H 
ENDBRANCH   3   6
ENDBRANCH   1   3
BRANCH   1  10
ATOM     10  C4  <0> d          -0.836   1.363   3.806  0.00  0.00    -0.036 C 
ATOM     11  H8  <0> d          -0.798   2.453   3.799  0.00  0.00     0.037 H 
ATOM     12  H9  <0> d          -1.876   1.036   3.813  0.00  0.00     0.037 H 
BRANCH  10  13
ATOM     13  C5  <0> d          -0.139   0.821   2.556  0.00  0.00     0.035 C 
ATOM     14  H2  <0> d          -0.076  -0.266   2.618  0.00  0.00     0.082 H 
BRANCH  13  15
ATOM     15  C6  <0> d          -0.940   1.215   1.314  0.00  0.00    -0.044 C 
ATOM     16  H10 <0> d          -0.928   2.300   1.203  0.00  0.00     0.036 H 
ATOM     17  H11 <0> d          -1.969   0.873   1.421  0.00  0.00     0.036 H 
BRANCH  15  18
ATOM     18  C7  <0> d          -0.314   0.569   0.077  0.00  0.00    -0.074 C 
ATOM     19  H12 <0> d          -0.326  -0.515   0.188  0.00  0.00     0.027 H 
ATOM     20  H13 <0> d           0.716   0.912  -0.030  0.00  0.00     0.027 H 
ATOM     21  H14 <0> d          -0.884   0.850  -0.808  0.00  0.00     0.027 H 
ENDBRANCH  15  18
ENDBRANCH  13  15
BRANCH  13  22
ATOM     22  O1  <0> d           1.177   1.370   2.469  0.00  0.00    -0.396 OA
ATOM     23  H15 <0> d           1.198   2.335   2.411  0.00  0.00     0.210 HD
ENDBRANCH  13  22
ENDBRANCH  10  13
ENDBRANCH   1  10
BRANCH   1  24
ATOM     24  C8  <0> d          -0.923   1.233   6.300  0.00  0.00     0.020 C 
ATOM     25  H16 <0> d          -0.916   2.318   6.404  0.00  0.00     0.074 H 
ATOM     26  H17 <0> d          -1.951   0.884   6.200  0.00  0.00     0.074 H 
BRANCH  24  27
ATOM     27  O2  <0> d          -0.328   0.640   7.455  0.00  0.00    -0.400 OA
ATOM     28  H18 <0> d          -0.781   0.849   8.283  0.00  0.00     0.209 HD
ENDBRANCH  24  27
ENDBRANCH   1  24
TORSDOF 9
