REMARK  0 active torsions:
REMARK  status: ('A' for Active; 'I' for Inactive)
ROOT
ATOM      1  C1  <0> d           2.010   1.546   1.413  0.00  0.00    -0.061 C 
ATOM      2  C2  <0> d           2.027  -0.000   1.405  0.00  0.00    -0.057 C 
ATOM      3  C3  <0> d           1.506  -0.392  -0.013  0.00  0.00     0.001 C 
ATOM      4  H1  <0> d           1.734  -1.406  -0.342  0.00  0.00     0.048 H 
ATOM      5  C4  <0> d           2.096   0.785  -0.869  0.00  0.00    -0.053 C 
ATOM      6  C5  <0> d           1.488   1.944  -0.002  0.00  0.00    -0.049 C 
ATOM      7  H2  <0> d           1.702   2.964  -0.320  0.00  0.00     0.040 H 
ATOM      8  C6  <0> d          -0.019   1.535   0.011  0.00  0.00    -0.009 C 
ATOM      9  C7  <0> d           0.002  -0.004   0.002  0.00  0.00     0.168 C 
ATOM     10  O1  <0> d          -0.647  -0.516  -1.160  0.00  0.00    -0.353 OA
ATOM     11  C8  <0> d          -1.712  -1.376  -0.701  0.00  0.00     0.043 C 
ATOM     12  C9  <0> d          -1.963  -0.883   0.747  0.00  0.00     0.043 C 
ATOM     13  O2  <0> d          -0.625  -0.526   1.176  0.00  0.00    -0.353 OA
ATOM     14  H3  <0> d           1.335   1.914   2.185  0.00  0.00     0.033 H 
ATOM     15  H4  <0> d           3.016   1.935   1.571  0.00  0.00     0.033 H 
ATOM     16  H5  <0> d           1.363  -0.391   2.175  0.00  0.00     0.033 H 
ATOM     17  H6  <0> d           3.041  -0.370   1.552  0.00  0.00     0.033 H 
ATOM     18  H7  <0> d           3.186   0.794  -0.856  0.00  0.00     0.034 H 
ATOM     19  H8  <0> d           1.704   0.787  -1.887  0.00  0.00     0.034 H 
ATOM     20  H9  <0> d          -0.523   1.913  -0.878  0.00  0.00     0.041 H 
ATOM     21  H10 <0> d          -0.506   1.904   0.913  0.00  0.00     0.041 H 
ATOM     22  H11 <0> d          -1.393  -2.419  -0.702  0.00  0.00     0.077 H 
ATOM     23  H12 <0> d          -2.605  -1.248  -1.312  0.00  0.00     0.077 H 
ATOM     24  H13 <0> d          -2.370  -1.682   1.366  0.00  0.00     0.077 H 
ATOM     25  H14 <0> d          -2.619  -0.013   0.755  0.00  0.00     0.077 H 
ENDROOT
TORSDOF 0
