REMARK  0 active torsions:
REMARK  status: ('A' for Active; 'I' for Inactive)
ROOT
ATOM      1  C1  <0> d          -0.016   1.357   0.009  0.00  0.00    -0.082 A 
ATOM      2  C2  <0> d           1.169   2.091   0.002  0.00  0.00    -0.082 A 
ATOM      3  C3  <0> d           2.378   1.468  -0.013  0.00  0.00    -0.072 A 
ATOM      4  C4  <0> d           2.438   0.063  -0.021  0.00  0.00    -0.023 A 
ATOM      5  C5  <0> d           3.668  -0.615  -0.036  0.00  0.00    -0.035 A 
ATOM      6  C6  <0> d           3.687  -1.978  -0.043  0.00  0.00     0.117 A 
ATOM      7  C7  <0> d           2.499  -2.712  -0.036  0.00  0.00    -0.045 A 
ATOM      8  C8  <0> d           1.291  -2.087  -0.022  0.00  0.00    -0.069 A 
ATOM      9  C9  <0> d           1.232  -0.683  -0.013  0.00  0.00    -0.026 A 
ATOM     10  C10 <0> d           0.002  -0.004   0.002  0.00  0.00    -0.072 A 
ATOM     11  F1  <0> d           4.871  -2.627  -0.057  0.00  0.00    -0.206 F 
ATOM     12  H1  <0> d          -0.963   1.876   0.026  0.00  0.00     0.083 H 
ATOM     13  H2  <0> d           1.126   3.170   0.008  0.00  0.00     0.083 H 
ATOM     14  H3  <0> d           3.288   2.049  -0.019  0.00  0.00     0.084 H 
ATOM     15  H4  <0> d           4.594  -0.059  -0.042  0.00  0.00     0.089 H 
ATOM     16  H5  <0> d           2.541  -3.791  -0.042  0.00  0.00     0.088 H 
ATOM     17  H6  <0> d           0.380  -2.668  -0.018  0.00  0.00     0.085 H 
ATOM     18  H7  <0> d          -0.924  -0.559   0.008  0.00  0.00     0.084 H 
ENDROOT
TORSDOF 0
