REMARK  1 active torsions:
REMARK  status: ('A' for Active; 'I' for Inactive)
REMARK    1  A    between atoms: C5_7  and  O1_11 
ROOT
ATOM      1  C1  <0> d          -0.019   1.567   0.011  0.00  0.00    -0.055 C 
ATOM      2  C2  <0> d           1.508   1.849  -0.002  0.00  0.00    -0.044 A 
ATOM      3  H1  <0> d           1.878   2.874   0.012  0.00  0.00     0.041 H 
ATOM      4  C3  <0> d           2.139   0.720  -0.836  0.00  0.00    -0.044 A 
ATOM      5  H2  <0> d           3.033   0.814  -1.452  0.00  0.00     0.041 H 
ATOM      6  C4  <0> d           2.158   0.690   0.772  0.00  0.00    -0.021 A 
ATOM      7  C5  <0> d           0.967  -0.230   1.227  0.00  0.00     0.043 C 
ATOM      8  H3  <0> d           0.521   0.122   2.157  0.00  0.00     0.084 H 
ATOM      9  C6  <0> d           0.002  -0.004   0.002  0.00  0.00    -0.028 C 
ATOM     10  C7  <0> d           0.935  -0.172  -1.312  0.00  0.00    -0.055 C 
ATOM     11  H4  <0> d          -0.486   1.952   0.917  0.00  0.00     0.034 H 
ATOM     12  H5  <0> d          -0.504   1.962  -0.882  0.00  0.00     0.034 H 
ATOM     13  H6  <0> d           3.067   0.761   1.370  0.00  0.00     0.045 H 
ATOM     14  H7  <0> d          -0.955  -0.525   0.017  0.00  0.00     0.043 H 
ATOM     15  H8  <0> d           0.479   0.223  -2.219  0.00  0.00     0.034 H 
ATOM     16  H9  <0> d           1.234  -1.212  -1.439  0.00  0.00     0.034 H 
ENDROOT
BRANCH   7  17
ATOM     17  O1  <0> d           1.371  -1.597   1.331  0.00  0.00    -0.395 OA
ATOM     18  H10 <0> d           0.665  -2.196   1.608  0.00  0.00     0.210 HD
ENDBRANCH   7  17
TORSDOF 1
