REMARK  5 active torsions:
REMARK  status: ('A' for Active; 'I' for Inactive)
REMARK    1  A    between atoms: C1_1  and  C2_2 
REMARK       I    between atoms: C2_2  and  N1_4 
REMARK    2  A    between atoms: N1_4  and  C3_5 
REMARK    3  A    between atoms: C3_5  and  C4_6 
REMARK    4  A    between atoms: C4_6  and  O3_8 
REMARK    5  A    between atoms: O3_8  and  C5_9 
ROOT
ATOM      1  C3  <0> d          -1.329   1.940   0.019  0.00  0.00     0.075 C 
ATOM      2  H5  <0> d          -1.391   2.561   0.913  0.00  0.00     0.079 H 
ATOM      3  H6  <0> d          -1.400   2.570  -0.867  0.00  0.00     0.079 H 
ENDROOT
BRANCH   1   4
ATOM      4  N1  <0> d          -2.430   0.973   0.019  0.00  0.00    -0.352 N 
ATOM      5  C2  <0> d          -3.707   1.405   0.027  0.00  0.00     0.214 C 
ATOM      6  O1  <0> d          -3.944   2.594   0.035  0.00  0.00    -0.274 OA
ATOM      7  H4  <0> d          -2.240   0.021   0.013  0.00  0.00     0.162 HD
BRANCH   5   8
ATOM      8  C1  <0> d          -4.839   0.410   0.027  0.00  0.00    -0.003 C 
ATOM      9  H1  <0> d          -4.433  -0.602   0.020  0.00  0.00     0.040 H 
ATOM     10  H2  <0> d          -5.447   0.551   0.921  0.00  0.00     0.040 H 
ATOM     11  H3  <0> d          -5.455   0.561  -0.859  0.00  0.00     0.040 H 
ENDBRANCH   5   8
ENDBRANCH   1   4
BRANCH   1  12
ATOM     12  C4  <0> d          -0.014   1.204   0.009  0.00  0.00     0.276 C 
ATOM     13  O2  <0> d           0.002  -0.004   0.002  0.00  0.00    -0.263 OA
BRANCH  12  14
ATOM     14  O3  <0> d           1.139   1.891   0.001  0.00  0.00    -0.325 OA
BRANCH  14  15
ATOM     15  C5  <0> d           2.367   1.117  -0.015  0.00  0.00     0.013 C 
ATOM     16  H7  <0> d           2.409   0.484   0.872  0.00  0.00     0.067 H 
ATOM     17  H8  <0> d           2.392   0.493  -0.908  0.00  0.00     0.067 H 
ATOM     18  H9  <0> d           3.223   1.792  -0.019  0.00  0.00     0.067 H 
ENDBRANCH  14  15
ENDBRANCH  12  14
ENDBRANCH   1  12
TORSDOF 5
