REMARK  3 active torsions:
REMARK  status: ('A' for Active; 'I' for Inactive)
REMARK    1  A    between atoms: C1_1  and  O1_2 
REMARK    2  A    between atoms: O1_2  and  C2_3 
REMARK    3  A    between atoms: C5_8  and  C6_10 
ROOT
ATOM      1  C6  <0> d          -0.768   1.598   1.236  0.00  0.00     0.045 C 
ATOM      2  C7  <0> d          -0.185   1.009   2.452  0.00  0.00     0.062 C 
ATOM      3  N1  <0> d           0.266   0.554   3.391  0.00  0.00    -0.197 NA
ATOM      4  H6  <0> d          -0.689   2.684   1.284  0.00  0.00     0.059 H 
ATOM      5  H7  <0> d          -1.818   1.313   1.162  0.00  0.00     0.059 H 
ENDROOT
BRANCH   1   6
ATOM      6  C5  <0> d          -0.013   1.086   0.008  0.00  0.00     0.105 A 
ATOM      7  C2  <0> d          -0.653   1.608  -1.259  0.00  0.00     0.082 A 
ATOM      8  C3  <0> d           0.289   2.342  -1.881  0.00  0.00     0.020 A 
ATOM      9  C4  <0> d           1.476   2.334  -1.121  0.00  0.00     0.286 A 
ATOM     10  H5  <0> d           0.155   2.859  -2.820  0.00  0.00     0.097 H 
ATOM     11  O2  <0> d           2.500   2.912  -1.433  0.00  0.00    -0.260 OA
ATOM     12  O3  <0> d           1.325   1.600  -0.002  0.00  0.00    -0.305 OA
ATOM     13  H1  <0> d           0.002  -0.004   0.002  0.00  0.00     0.096 H 
BRANCH   7  14
ATOM     14  O1  <0> d          -1.913   1.383  -1.681  0.00  0.00    -0.357 OA
BRANCH  14  15
ATOM     15  C1  <0> d          -2.307   1.994  -2.938  0.00  0.00     0.010 C 
ATOM     16  H2  <0> d          -3.341   1.734  -3.160  0.00  0.00     0.066 H 
ATOM     17  H3  <0> d          -2.212   3.077  -2.861  0.00  0.00     0.066 H 
ATOM     18  H4  <0> d          -1.661   1.629  -3.737  0.00  0.00     0.066 H 
ENDBRANCH  14  15
ENDBRANCH   7  14
ENDBRANCH   1   6
TORSDOF 3
