REMARK  2 active torsions:
REMARK  status: ('A' for Active; 'I' for Inactive)
REMARK    1  A    between atoms: C1_1  and  C2_2 
REMARK    2  A    between atoms: C5_5  and  C8_9 
ROOT
ATOM      1  C2  <0> d           0.002  -0.004   0.002  0.00  0.00    -0.060 A 
ATOM      2  C3  <0> d           0.006  -0.689  -1.199  0.00  0.00    -0.077 A 
ATOM      3  C4  <0> d           0.025  -2.071  -1.208  0.00  0.00    -0.075 A 
ATOM      4  C5  <0> d           0.039  -2.769  -0.015  0.00  0.00    -0.040 A 
ATOM      5  C6  <0> d           0.035  -2.085   1.187  0.00  0.00     0.040 A 
ATOM      6  C7  <0> d           0.023  -0.701   1.195  0.00  0.00    -0.056 A 
ATOM      7 Cl1  <0> d           0.054  -2.962   2.686  0.00  0.00    -0.084 Cl
ATOM      8  H4  <0> d          -0.006  -0.143  -2.131  0.00  0.00     0.084 H 
ATOM      9  H5  <0> d           0.027  -2.605  -2.146  0.00  0.00     0.084 H 
ATOM     10  H6  <0> d           0.025  -0.166   2.133  0.00  0.00     0.086 H 
ENDROOT
BRANCH   1  11
ATOM     11  C1  <0> d          -0.018   1.503   0.010  0.00  0.00    -0.051 C 
ATOM     12  H1  <0> d           1.004   1.880   0.003  0.00  0.00     0.033 H 
ATOM     13  H2  <0> d          -0.545   1.864  -0.873  0.00  0.00     0.033 H 
ATOM     14  H3  <0> d          -0.529   1.854   0.907  0.00  0.00     0.033 H 
ENDBRANCH   1  11
BRANCH   4  15
ATOM     15  C8  <0> d           0.059  -4.276  -0.024  0.00  0.00    -0.050 C 
ATOM     16  H7  <0> d           1.091  -4.626  -0.031  0.00  0.00     0.033 H 
ATOM     17  H8  <0> d          -0.446  -4.652   0.866  0.00  0.00     0.033 H 
ATOM     18  H9  <0> d          -0.455  -4.641  -0.914  0.00  0.00     0.033 H 
ENDBRANCH   4  15
TORSDOF 2
