REMARK  2 active torsions:
REMARK  status: ('A' for Active; 'I' for Inactive)
REMARK    1  A    between atoms: C1_1  and  N1_2 
REMARK    2  A    between atoms: C4_5  and  N3_7 
ROOT
ATOM      1  N1  <0> d           2.246   3.009   0.240  0.00  0.00    -0.276 N 
ATOM      2  C2  <0> d           1.438   1.952  -0.001  0.00  0.00     0.040 A 
ATOM      3  C3  <0> d           2.214   0.915  -0.383  0.00  0.00     0.013 A 
ATOM      4  C4  <0> d           3.551   1.353  -0.376  0.00  0.00     0.149 A 
ATOM      5  N2  <0> d           3.566   2.609  -0.002  0.00  0.00    -0.154 NA
ATOM      6  C5  <0> d           1.361  -0.303  -0.668  0.00  0.00    -0.035 C 
ATOM      7  C6  <0> d           0.002  -0.004   0.002  0.00  0.00    -0.056 C 
ATOM      8  C7  <0> d          -0.019   1.540   0.011  0.00  0.00    -0.024 C 
ATOM      9  H6  <0> d           1.258  -0.432  -1.756  0.00  0.00     0.040 H 
ATOM     10  H7  <0> d           1.839  -1.195  -0.237  0.00  0.00     0.040 H 
ATOM     11  H8  <0> d          -0.807  -0.443  -0.600  0.00  0.00     0.034 H 
ATOM     12  H9  <0> d          -0.013  -0.441   1.011  0.00  0.00     0.034 H 
ATOM     13  H10 <0> d          -0.504   1.935   0.915  0.00  0.00     0.042 H 
ATOM     14  H11 <0> d          -0.521   1.944  -0.881  0.00  0.00     0.042 H 
ENDROOT
BRANCH   1  15
ATOM     15  C1  <0> d           1.816   4.339   0.677  0.00  0.00     0.003 C 
ATOM     16  H1  <0> d           0.722   4.354   0.783  0.00  0.00     0.059 H 
ATOM     17  H2  <0> d           2.123   5.087  -0.069  0.00  0.00     0.059 H 
ATOM     18  H3  <0> d           2.282   4.575   1.645  0.00  0.00     0.059 H 
ENDBRANCH   1  15
BRANCH   4  19
ATOM     19  N3  <0> d           4.671   0.581  -0.710  0.00  0.00    -0.382 N 
ATOM     20  H4  <0> d           5.676   1.026  -0.671  0.00  0.00     0.157 HD
ATOM     21  H5  <0> d           4.545  -0.469  -1.013  0.00  0.00     0.157 HD
ENDBRANCH   4  19
TORSDOF 2
