REMARK  1 active torsions:
REMARK  status: ('A' for Active; 'I' for Inactive)
REMARK    1  A    between atoms: C1_1  and  C2_2 
ROOT
ATOM      1  C2  <0> d           2.940   3.494  -0.008  0.00  0.00     0.008 A 
ATOM      2  C3  <0> d           1.598   3.462   0.005  0.00  0.00    -0.048 A 
ATOM      3  C4  <0> d           1.207   2.051   0.002  0.00  0.00     0.012 A 
ATOM      4  C5  <0> d          -0.017   1.378   0.010  0.00  0.00    -0.068 A 
ATOM      5  C6  <0> d           0.002  -0.004   0.002  0.00  0.00    -0.065 A 
ATOM      6  C7  <0> d           1.219  -0.668  -0.013  0.00  0.00     0.004 A 
ATOM      7  N1  <0> d           2.361  -0.015  -0.021  0.00  0.00    -0.242 NA
ATOM      8  C8  <0> d           2.405   1.311  -0.014  0.00  0.00     0.137 A 
ATOM      9  N2  <0> d           3.437   2.218  -0.020  0.00  0.00    -0.344 N 
ATOM     10  H1  <0> d           4.524   2.051  -0.031  0.00  0.00     0.167 HD
ATOM     11  H5  <0> d           0.934   4.314   0.016  0.00  0.00     0.087 H 
ATOM     12  H6  <0> d          -0.950   1.921   0.017  0.00  0.00     0.085 H 
ATOM     13  H7  <0> d          -0.923  -0.561   0.007  0.00  0.00     0.085 H 
ATOM     14  H8  <0> d           1.230  -1.748  -0.019  0.00  0.00     0.114 H 
ENDROOT
BRANCH   1  15
ATOM     15  C1  <0> d           3.776   4.748  -0.009  0.00  0.00    -0.037 C 
ATOM     16  H2  <0> d           3.116   5.628   0.002  0.00  0.00     0.035 H 
ATOM     17  H3  <0> d           4.402   4.771  -0.914  0.00  0.00     0.035 H 
ATOM     18  H4  <0> d           4.420   4.761   0.882  0.00  0.00     0.035 H 
ENDBRANCH   1  15
TORSDOF 1
