REMARK  5 active torsions:
REMARK  status: ('A' for Active; 'I' for Inactive)
REMARK    1  A    between atoms: C1_1  and  O1_2 
REMARK    2  A    between atoms: O1_2  and  C2_3 
REMARK    3  A    between atoms: C4_6  and  O4_13 
REMARK    4  A    between atoms: C5_8  and  C6_11 
REMARK    5  A    between atoms: C6_11  and  O3_12 
ROOT
ATOM      1  C2  <0> d           1.280   2.024   0.001  0.00  0.00     0.133 C 
ATOM      2  H1  <0> d           1.860   1.637  -0.838  0.00  0.00     0.129 H 
ATOM      3  C3  <0> d           1.148   3.557  -0.116  0.00  0.00     0.007 C 
ATOM      4  C4  <0> d           2.267   4.058   0.838  0.00  0.00     0.067 C 
ATOM      5  H2  <0> d           3.233   4.079   0.334  0.00  0.00     0.087 H 
ATOM      6  C5  <0> d           2.231   2.963   1.933  0.00  0.00     0.086 C 
ATOM      7  H3  <0> d           1.440   3.173   2.653  0.00  0.00     0.090 H 
ATOM      8  O2  <0> d           1.955   1.740   1.232  0.00  0.00    -0.351 OA
ATOM      9  H7  <0> d           1.335   3.886  -1.139  0.00  0.00     0.044 H 
ATOM     10  H8  <0> d           0.167   3.889   0.223  0.00  0.00     0.044 H 
ENDROOT
BRANCH   1  11
ATOM     11  O1  <0> d          -0.017   1.425   0.010  0.00  0.00    -0.366 OA
BRANCH  11  12
ATOM     12  C1  <0> d           0.002  -0.004   0.002  0.00  0.00     0.007 C 
ATOM     13  H4  <0> d           0.512  -0.356  -0.895  0.00  0.00     0.066 H 
ATOM     14  H5  <0> d           0.529  -0.365   0.885  0.00  0.00     0.066 H 
ATOM     15  H6  <0> d          -1.020  -0.381   0.010  0.00  0.00     0.066 H 
ENDBRANCH  11  12
ENDBRANCH   1  11
BRANCH   6  16
ATOM     16  C6  <0> d           3.585   2.876   2.640  0.00  0.00     0.043 C 
ATOM     17  H9  <0> d           4.344   2.541   1.933  0.00  0.00     0.078 H 
ATOM     18  H10 <0> d           3.857   3.857   3.028  0.00  0.00     0.078 H 
BRANCH  16  19
ATOM     19  O3  <0> d           3.498   1.945   3.721  0.00  0.00    -0.398 OA
ATOM     20  H11 <0> d           4.322   1.838   4.216  0.00  0.00     0.209 HD
ENDBRANCH  16  19
ENDBRANCH   6  16
BRANCH   4  21
ATOM     21  O4  <0> d           1.944   5.340   1.381  0.00  0.00    -0.393 OA
ATOM     22  H12 <0> d           1.850   6.036   0.716  0.00  0.00     0.210 HD
ENDBRANCH   4  21
TORSDOF 5
