REMARK  1 active torsions:
REMARK  status: ('A' for Active; 'I' for Inactive)
REMARK    1  A    between atoms: C6_6  and  N1_7 
ROOT
ATOM      1  C1  <0> d          -4.216   1.648   2.367  0.00  0.00    -0.055 A 
ATOM      2  C2  <0> d          -2.833   1.690   2.377  0.00  0.00    -0.053 A 
ATOM      3  C3  <0> d          -2.128   1.519   1.198  0.00  0.00     0.061 A 
ATOM      4  C4  <0> d          -2.804   1.302  -0.000  0.00  0.00     0.097 A 
ATOM      5  C5  <0> d          -4.189   1.261  -0.007  0.00  0.00    -0.023 A 
ATOM      6  C6  <0> d          -4.895   1.434   1.176  0.00  0.00     0.028 A 
ATOM      7  O1  <0> d          -2.120   1.129  -1.163  0.00  0.00    -0.347 OA
ATOM      8  C7  <0> d          -0.773   1.603  -1.221  0.00  0.00     0.041 C 
ATOM      9  C8  <0> d          -0.013   1.086   0.008  0.00  0.00     0.013 C 
ATOM     10  N2  <0> d          -0.720   1.570   1.206  0.00  0.00    -0.386 N 
ATOM     11  H1  <0> d          -4.767   1.782   3.286  0.00  0.00     0.087 H 
ATOM     12  H2  <0> d          -2.305   1.857   3.304  0.00  0.00     0.087 H 
ATOM     13  H3  <0> d          -4.719   1.094  -0.933  0.00  0.00     0.091 H 
ATOM     14  H6  <0> d          -0.294   1.233  -2.139  0.00  0.00     0.077 H 
ATOM     15  H7  <0> d          -0.772   2.703  -1.224  0.00  0.00     0.077 H 
ATOM     16  H8  <0> d           0.005  -0.014  -0.008  0.00  0.00     0.067 H 
ATOM     17  H9  <0> d           1.018   1.470  -0.010  0.00  0.00     0.067 H 
ATOM     18  H10 <0> d          -0.148   1.952   2.065  0.00  0.00     0.159 HD
ENDROOT
BRANCH   6  19
ATOM     19  N1  <0> d          -6.294   1.392   1.167  0.00  0.00    -0.399 N 
ATOM     20  H4  <0> d          -6.833   1.223   0.223  0.00  0.00     0.156 HD
ATOM     21  H5  <0> d          -6.854   1.528   2.103  0.00  0.00     0.156 HD
ENDBRANCH   6  19
TORSDOF 1
