REMARK  2 active torsions:
REMARK  status: ('A' for Active; 'I' for Inactive)
REMARK    1  A    between atoms: C1_1  and  S1_2 
REMARK    2  A    between atoms: S1_2  and  C2_3 
ROOT
ATOM      1  C2  <0> d          -0.741   3.411   1.254  0.00  0.00     0.226 A 
ATOM      2  N1  <0> d          -0.168   4.020   0.241  0.00  0.00    -0.106 NA
ATOM      3  N2  <0> d          -0.265   5.295   0.379  0.00  0.00     0.048 NA
ATOM      4  C3  <0> d          -0.898   5.579   1.494  0.00  0.00     0.769 A 
ATOM      5  N3  <0> d          -1.220   4.378   2.085  0.00  0.00    -0.054 N 
ATOM      6  N4  <0> d          -1.893   4.690   3.269  0.00  0.00    -0.270 N 
ATOM      7  H1  <0> d          -2.251   4.060   3.914  0.00  0.00     0.189 HD
ATOM      8  C4  <0> d          -1.948   6.056   3.345  0.00  0.00     0.098 A 
ATOM      9  N5  <0> d          -1.364   6.569   2.302  0.00  0.00    -0.053 NA
ATOM     10  H5  <0> d          -2.406   6.620   4.145  0.00  0.00     0.146 H 
ENDROOT
BRANCH   1  11
ATOM     11  S1  <0> d          -0.860   1.669   1.497  0.00  0.00    -0.092 SA
BRANCH  11  12
ATOM     12  C1  <0> d          -0.013   1.086   0.008  0.00  0.00    -0.027 C 
ATOM     13  H2  <0> d           0.002  -0.004   0.002  0.00  0.00     0.042 H 
ATOM     14  H3  <0> d           1.010   1.463   0.000  0.00  0.00     0.042 H 
ATOM     15  H4  <0> d          -0.540   1.447  -0.875  0.00  0.00     0.042 H 
ENDBRANCH  11  12
ENDBRANCH   1  11
TORSDOF 2
