REMARK  1 active torsions:
REMARK  status: ('A' for Active; 'I' for Inactive)
REMARK    1  A    between atoms: C7_9  and  O3_11 
ROOT
ATOM      1  C1  <0> d          -0.019   1.536   0.011  0.00  0.00    -0.063 C 
ATOM      2  C2  <0> d           1.521   1.486  -0.004  0.00  0.00    -0.053 C 
ATOM      3  C3  <0> d           1.392   0.101   0.618  0.00  0.00     0.017 C 
ATOM      4  C4  <0> d           0.002  -0.004   0.002  0.00  0.00    -0.053 C 
ATOM      5  C5  <0> d           2.418  -0.946   0.159  0.00  0.00     0.039 C 
ATOM      6  O1  <0> d           3.292  -1.088   1.304  0.00  0.00    -0.319 OA
ATOM      7  C6  <0> d           2.499  -1.053   2.405  0.00  0.00     0.288 C 
ATOM      8  O2  <0> d           2.596  -1.746   3.390  0.00  0.00    -0.262 OA
ATOM      9  C7  <0> d           1.463   0.035   2.150  0.00  0.00     0.128 C 
ATOM     10  H1  <0> d           1.797   0.988   2.560  0.00  0.00     0.100 H 
ATOM     11  H2  <0> d          -0.432   1.961   0.925  0.00  0.00     0.033 H 
ATOM     12  H3  <0> d          -0.450   1.971  -0.891  0.00  0.00     0.033 H 
ATOM     13  H4  <0> d           1.949   1.478  -1.007  0.00  0.00     0.034 H 
ATOM     14  H5  <0> d           1.989   2.219   0.652  0.00  0.00     0.034 H 
ATOM     15  H6  <0> d          -0.737  -0.456   0.664  0.00  0.00     0.034 H 
ATOM     16  H7  <0> d          -0.002  -0.436  -0.999  0.00  0.00     0.034 H 
ATOM     17  H8  <0> d           1.926  -1.892  -0.067  0.00  0.00     0.076 H 
ATOM     18  H9  <0> d           2.974  -0.585  -0.706  0.00  0.00     0.076 H 
ENDROOT
BRANCH   9  19
ATOM     19  O3  <0> d           0.197  -0.335   2.698  0.00  0.00    -0.385 OA
ATOM     20  H10 <0> d           0.187  -0.391   3.663  0.00  0.00     0.210 HD
ENDBRANCH   9  19
TORSDOF 1
