REMARK  2 active torsions:
REMARK  status: ('A' for Active; 'I' for Inactive)
REMARK    1  A    between atoms: C3_3  and  C5_7 
REMARK    2  A    between atoms: C6_10  and  N3_12 
ROOT
ATOM      1  C1  <0> d          -0.019   1.544   0.011  0.00  0.00    -0.043 C 
ATOM      2  C2  <0> d           0.002  -0.004   0.002  0.00  0.00    -0.032 C 
ATOM      3  C3  <0> d           1.398  -0.360  -0.546  0.00  0.00     0.104 C 
ATOM      4  H1  <0> d           2.023  -0.901   0.180  0.00  0.00     0.096 H 
ATOM      5  O1  <0> d           2.062   0.876  -0.858  0.00  0.00    -0.378 OA
ATOM      6  C4  <0> d           1.492   1.889  -0.002  0.00  0.00     0.021 C 
ATOM      7  H2  <0> d          -0.483   1.963   0.915  0.00  0.00     0.036 H 
ATOM      8  H3  <0> d          -0.500   1.972  -0.881  0.00  0.00     0.036 H 
ATOM      9  H4  <0> d          -0.147  -0.378   1.026  0.00  0.00     0.037 H 
ATOM     10  H5  <0> d          -0.804  -0.378  -0.647  0.00  0.00     0.037 H 
ATOM     11  H6  <0> d           1.633   2.904  -0.403  0.00  0.00     0.074 H 
ATOM     12  H7  <0> d           1.887   1.842   1.023  0.00  0.00     0.074 H 
ENDROOT
BRANCH   3  13
ATOM     13  C5  <0> d           1.261  -1.201  -1.789  0.00  0.00     0.199 A 
ATOM     14  O2  <0> d           1.478  -2.527  -1.881  0.00  0.00    -0.257 OA
ATOM     15  C6  <0> d           1.242  -2.861  -3.163  0.00  0.00     0.265 A 
ATOM     16  N2  <0> d           0.899  -1.764  -3.793  0.00  0.00    -0.103 NA
ATOM     17  N1  <0> d           0.907  -0.778  -2.967  0.00  0.00    -0.122 NA
BRANCH  15  18
ATOM     18  N3  <0> d           1.342  -4.126  -3.712  0.00  0.00    -0.362 N 
ATOM     19  H8  <0> d           1.640  -4.977  -3.083  0.00  0.00     0.159 HD
ATOM     20  H9  <0> d           1.124  -4.281  -4.779  0.00  0.00     0.159 HD
ENDBRANCH  15  18
ENDBRANCH   3  13
TORSDOF 2
