REMARK  5 active torsions:
REMARK  status: ('A' for Active; 'I' for Inactive)
REMARK    1  A    between atoms: C1_1  and  C2_2 
REMARK    2  A    between atoms: C2_2  and  C3_3 
REMARK    3  A    between atoms: C2_2  and  C4_4 
REMARK    4  A    between atoms: C2_2  and  C5_5 
REMARK    5  A    between atoms: C10_11  and  O1_13 
ROOT
ATOM      1  C5  <0> d          -1.596   3.620  -0.040  0.00  0.00    -0.023 C 
ATOM      2  H1  <0> d          -2.643   3.316  -0.052  0.00  0.00     0.045 H 
ATOM      3  C6  <0> d          -0.909   3.141  -1.320  0.00  0.00    -0.059 C 
ATOM      4  C7  <0> d          -0.995   1.615  -1.404  0.00  0.00    -0.065 C 
ATOM      5  C8  <0> d          -0.299   0.998  -0.190  0.00  0.00    -0.063 C 
ATOM      6  C9  <0> d          -0.985   1.478   1.091  0.00  0.00    -0.041 C 
ATOM      7  C10 <0> d          -0.900   3.003   1.175  0.00  0.00     0.040 C 
ATOM      8  H2  <0> d           0.147   3.308   1.187  0.00  0.00     0.083 H 
ATOM      9  H12 <0> d           0.137   3.446  -1.307  0.00  0.00     0.033 H 
ATOM     10  H13 <0> d          -1.406   3.580  -2.185  0.00  0.00     0.033 H 
ATOM     11  H14 <0> d          -0.506   1.274  -2.316  0.00  0.00     0.033 H 
ATOM     12  H15 <0> d          -2.042   1.310  -1.417  0.00  0.00     0.033 H 
ATOM     13  H16 <0> d          -0.360  -0.089  -0.249  0.00  0.00     0.033 H 
ATOM     14  H17 <0> d           0.748   1.303  -0.177  0.00  0.00     0.033 H 
ATOM     15  H18 <0> d          -2.032   1.173   1.078  0.00  0.00     0.036 H 
ATOM     16  H19 <0> d          -0.489   1.038   1.956  0.00  0.00     0.036 H 
ENDROOT
BRANCH   1  17
ATOM     17  C2  <0> d          -1.510   5.146   0.044  0.00  0.00    -0.045 C 
BRANCH  17  18
ATOM     18  C1  <0> d          -2.062   5.759  -1.244  0.00  0.00    -0.069 C 
ATOM     19  H3  <0> d          -3.102   5.460  -1.373  0.00  0.00     0.028 H 
ATOM     20  H4  <0> d          -2.001   6.846  -1.185  0.00  0.00     0.028 H 
ATOM     21  H5  <0> d          -1.476   5.408  -2.094  0.00  0.00     0.028 H 
ENDBRANCH  17  18
BRANCH  17  22
ATOM     22  C3  <0> d          -2.333   5.638   1.236  0.00  0.00    -0.069 C 
ATOM     23  H6  <0> d          -1.837   5.351   2.163  0.00  0.00     0.028 H 
ATOM     24  H7  <0> d          -2.423   6.723   1.193  0.00  0.00     0.028 H 
ATOM     25  H8  <0> d          -3.326   5.190   1.202  0.00  0.00     0.028 H 
ENDBRANCH  17  22
BRANCH  17  26
ATOM     26  C4  <0> d          -0.050   5.565   0.224  0.00  0.00    -0.069 C 
ATOM     27  H9  <0> d           0.536   5.215  -0.625  0.00  0.00     0.028 H 
ATOM     28  H10 <0> d           0.011   6.652   0.284  0.00  0.00     0.028 H 
ATOM     29  H11 <0> d           0.343   5.128   1.142  0.00  0.00     0.028 H 
ENDBRANCH  17  26
ENDBRANCH   1  17
BRANCH   7  30
ATOM     30  O1  <0> d          -1.541   3.451   2.370  0.00  0.00    -0.395 OA
ATOM     31  H20 <0> d          -1.151   3.099   3.182  0.00  0.00     0.210 HD
ENDBRANCH   7  30
TORSDOF 5
