REMARK  9 active torsions:
REMARK  status: ('A' for Active; 'I' for Inactive)
REMARK    1  A    between atoms: C1_1  and  C2_2 
REMARK    2  A    between atoms: C2_2  and  C3_3 
REMARK    3  A    between atoms: C3_3  and  C4_4 
REMARK    4  A    between atoms: C4_4  and  C5_5 
REMARK    5  A    between atoms: C4_4  and  C7_7 
REMARK    6  A    between atoms: C4_4  and  C9_9 
REMARK    7  A    between atoms: C5_5  and  C6_6 
REMARK    8  A    between atoms: C7_7  and  C8_8 
REMARK    9  A    between atoms: C9_9  and  O1_10 
ROOT
ATOM      1  C4  <0> d           1.145   3.085   0.008  0.00  0.00    -0.020 C 
ENDROOT
BRANCH   1   2
ATOM      2  C3  <0> d           0.368   3.533  -1.232  0.00  0.00    -0.056 C 
ATOM      3  H6  <0> d          -0.622   3.076  -1.225  0.00  0.00     0.034 H 
ATOM      4  H7  <0> d           0.267   4.618  -1.225  0.00  0.00     0.034 H 
BRANCH   2   5
ATOM      5  C2  <0> d           1.121   3.099  -2.491  0.00  0.00    -0.068 C 
ATOM      6  H4  <0> d           2.111   3.555  -2.498  0.00  0.00     0.032 H 
ATOM      7  H5  <0> d           1.222   2.013  -2.497  0.00  0.00     0.032 H 
BRANCH   5   8
ATOM      8  C1  <0> d           0.344   3.546  -3.730  0.00  0.00    -0.076 C 
ATOM      9  H1  <0> d           0.243   4.632  -3.723  0.00  0.00     0.027 H 
ATOM     10  H2  <0> d           0.880   3.237  -4.627  0.00  0.00     0.027 H 
ATOM     11  H3  <0> d          -0.646   3.090  -3.723  0.00  0.00     0.027 H 
ENDBRANCH   5   8
ENDBRANCH   2   5
ENDBRANCH   1   2
BRANCH   1  12
ATOM     12  C5  <0> d           0.392   3.519   1.266  0.00  0.00    -0.059 C 
ATOM     13  H8  <0> d           0.291   4.605   1.273  0.00  0.00     0.033 H 
ATOM     14  H9  <0> d          -0.598   3.063   1.274  0.00  0.00     0.033 H 
BRANCH  12  15
ATOM     15  C6  <0> d           1.169   3.072   2.506  0.00  0.00    -0.076 C 
ATOM     16  H10 <0> d           0.632   3.381   3.403  0.00  0.00     0.027 H 
ATOM     17  H11 <0> d           1.270   1.986   2.499  0.00  0.00     0.027 H 
ATOM     18  H12 <0> d           2.158   3.529   2.499  0.00  0.00     0.027 H 
ENDBRANCH  12  15
ENDBRANCH   1  12
BRANCH   1  19
ATOM     19  C7  <0> d           2.534   3.726  -0.002  0.00  0.00    -0.059 C 
ATOM     20  H13 <0> d           3.088   3.407   0.881  0.00  0.00     0.033 H 
ATOM     21  H14 <0> d           3.071   3.417  -0.899  0.00  0.00     0.033 H 
BRANCH  19  22
ATOM     22  C8  <0> d           2.393   5.250   0.007  0.00  0.00    -0.076 C 
ATOM     23  H15 <0> d           3.382   5.707   0.000  0.00  0.00     0.027 H 
ATOM     24  H16 <0> d           1.839   5.569  -0.876  0.00  0.00     0.027 H 
ATOM     25  H17 <0> d           1.856   5.559   0.904  0.00  0.00     0.027 H 
ENDBRANCH  19  22
ENDBRANCH   1  19
BRANCH   1  26
ATOM     26  C9  <0> d           1.286   1.562  -0.002  0.00  0.00     0.024 C 
ATOM     27  H18 <0> d           1.840   1.243   0.881  0.00  0.00     0.075 H 
ATOM     28  H19 <0> d           1.823   1.252  -0.899  0.00  0.00     0.075 H 
BRANCH  26  29
ATOM     29  O1  <0> d          -0.011   0.963   0.007  0.00  0.00    -0.400 OA
ATOM     30  H20 <0> d           0.002  -0.004   0.002  0.00  0.00     0.209 HD
ENDBRANCH  26  29
ENDBRANCH   1  26
TORSDOF 9
