REMARK  7 active torsions:
REMARK  status: ('A' for Active; 'I' for Inactive)
REMARK    1  A    between atoms: C1_1  and  C2_2 
REMARK    2  A    between atoms: C2_2  and  C3_3 
REMARK    3  A    between atoms: C2_2  and  C4_4 
REMARK    4  A    between atoms: C2_2  and  C5_6 
REMARK    5  A    between atoms: C4_4  and  O1_5 
REMARK    6  A    between atoms: C5_6  and  O3_8 
REMARK    7  A    between atoms: O3_8  and  C6_9 
ROOT
ATOM      1  C2  <0> d           0.002  -0.004   0.002  0.00  0.00     0.062 C 
ENDROOT
BRANCH   1   2
ATOM      2  C1  <0> d          -0.700  -0.530   1.255  0.00  0.00    -0.059 C 
ATOM      3  H1  <0> d          -1.733  -0.181   1.267  0.00  0.00     0.029 H 
ATOM      4  H2  <0> d          -0.685  -1.620   1.249  0.00  0.00     0.029 H 
ATOM      5  H3  <0> d          -0.183  -0.165   2.142  0.00  0.00     0.029 H 
ENDBRANCH   1   2
BRANCH   1   6
ATOM      6  C3  <0> d          -0.724  -0.517  -1.243  0.00  0.00    -0.059 C 
ATOM      7  H4  <0> d          -0.224  -0.142  -2.136  0.00  0.00     0.029 H 
ATOM      8  H5  <0> d          -0.709  -1.607  -1.249  0.00  0.00     0.029 H 
ATOM      9  H6  <0> d          -1.756  -0.168  -1.231  0.00  0.00     0.029 H 
ENDBRANCH   1   6
BRANCH   1  10
ATOM     10  C4  <0> d           1.451  -0.494  -0.015  0.00  0.00     0.032 C 
ATOM     11  H7  <0> d           1.952  -0.119  -0.907  0.00  0.00     0.075 H 
ATOM     12  H8  <0> d           1.969  -0.129   0.873  0.00  0.00     0.075 H 
BRANCH  10  13
ATOM     13  O1  <0> d           1.471  -1.923  -0.022  0.00  0.00    -0.400 OA
ATOM     14  H9  <0> d           2.359  -2.304  -0.033  0.00  0.00     0.209 HD
ENDBRANCH  10  13
ENDBRANCH   1  10
BRANCH   1  15
ATOM     15  C5  <0> d          -0.018   1.503   0.010  0.00  0.00     0.268 C 
ATOM     16  O2  <0> d           1.020   2.121   0.004  0.00  0.00    -0.264 OA
BRANCH  15  17
ATOM     17  O3  <0> d          -1.190   2.158   0.019  0.00  0.00    -0.326 OA
BRANCH  17  18
ATOM     18  C6  <0> d          -1.133   3.609   0.027  0.00  0.00     0.013 C 
ATOM     19  H10 <0> d          -0.602   3.947   0.916  0.00  0.00     0.067 H 
ATOM     20  H11 <0> d          -0.610   3.957  -0.864  0.00  0.00     0.067 H 
ATOM     21  H12 <0> d          -2.146   4.012   0.034  0.00  0.00     0.067 H 
ENDBRANCH  17  18
ENDBRANCH  15  17
ENDBRANCH   1  15
TORSDOF 7
