REMARK  2 active torsions:
REMARK  status: ('A' for Active; 'I' for Inactive)
REMARK    1  A    between atoms: C3_3  and  C7_11 
REMARK    2  A    between atoms: C4_5  and  C6_8 
REMARK       I    between atoms: C6_8  and  N1_10 
REMARK       I    between atoms: C7_11  and  N2_13 
ROOT
ATOM      1  C1  <0> d          -0.013   1.086   0.008  0.00  0.00    -0.063 C 
ATOM      2  C2  <0> d          -0.763   1.597   1.255  0.00  0.00    -0.053 C 
ATOM      3  C3  <0> d          -2.207   1.850   0.751  0.00  0.00     0.035 C 
ATOM      4  H1  <0> d          -2.770   0.918   0.707  0.00  0.00     0.056 H 
ATOM      5  C4  <0> d          -1.978   2.421  -0.670  0.00  0.00     0.035 C 
ATOM      6  H2  <0> d          -1.728   3.480  -0.621  0.00  0.00     0.056 H 
ATOM      7  C5  <0> d          -0.784   1.609  -1.216  0.00  0.00    -0.053 C 
ATOM      8  H3  <0> d           0.002  -0.004   0.002  0.00  0.00     0.033 H 
ATOM      9  H4  <0> d           1.006   1.473   0.000  0.00  0.00     0.033 H 
ATOM     10  H5  <0> d          -0.759   0.841   2.040  0.00  0.00     0.034 H 
ATOM     11  H6  <0> d          -0.317   2.524   1.615  0.00  0.00     0.034 H 
ATOM     12  H7  <0> d          -0.140   2.251  -1.817  0.00  0.00     0.034 H 
ATOM     13  H8  <0> d          -1.144   0.773  -1.816  0.00  0.00     0.034 H 
ENDROOT
BRANCH   3  14
ATOM     14  C7  <0> d          -2.908   2.858   1.625  0.00  0.00     0.220 C 
ATOM     15  O2  <0> d          -3.209   3.944   1.176  0.00  0.00    -0.273 OA
ATOM     16  N2  <0> d          -3.200   2.554   2.905  0.00  0.00    -0.370 N 
ATOM     17  H11 <0> d          -2.959   1.685   3.264  0.00  0.00     0.159 HD
ATOM     18  H12 <0> d          -3.652   3.203   3.467  0.00  0.00     0.159 HD
ENDBRANCH   3  14
BRANCH   5  19
ATOM     19  C6  <0> d          -3.198   2.205  -1.528  0.00  0.00     0.220 C 
ATOM     20  O1  <0> d          -4.197   1.711  -1.049  0.00  0.00    -0.273 OA
ATOM     21  N1  <0> d          -3.180   2.561  -2.828  0.00  0.00    -0.370 N 
ATOM     22  H9  <0> d          -2.381   2.956  -3.211  0.00  0.00     0.159 HD
ATOM     23  H10 <0> d          -3.965   2.422  -3.380  0.00  0.00     0.159 HD
ENDBRANCH   5  19
TORSDOF 2
