REMARK  0 active torsions:
REMARK  status: ('A' for Active; 'I' for Inactive)
ROOT
ATOM      1  C1  <0> d          -0.018   1.457   0.010  0.00  0.00    -0.055 A 
ATOM      2  C2  <0> d           1.263   1.867   0.000  0.00  0.00    -0.022 A 
ATOM      3  N1  <0> d           2.099   0.786  -0.014  0.00  0.00    -0.365 N 
ATOM      4  H1  <0> d           3.068   0.831  -0.022  0.00  0.00     0.165 HD
ATOM      5  C3  <0> d           1.365  -0.373  -0.013  0.00  0.00     0.046 A 
ATOM      6  C4  <0> d           0.002  -0.004   0.002  0.00  0.00     0.009 A 
ATOM      7  C5  <0> d          -0.976  -1.001   0.005  0.00  0.00     0.016 A 
ATOM      8  N2  <0> d          -0.632  -2.268  -0.005  0.00  0.00    -0.249 NA
ATOM      9  C6  <0> d           0.644  -2.656  -0.019  0.00  0.00     0.138 A 
ATOM     10  C7  <0> d           1.680  -1.727  -0.023  0.00  0.00    -0.018 A 
ATOM     11  C8  <0> d           0.954  -4.054  -0.029  0.00  0.00     0.119 C 
ATOM     12  N3  <0> d           1.199  -5.163  -0.037  0.00  0.00    -0.190 NA
ATOM     13  H2  <0> d          -0.894   2.088   0.026  0.00  0.00     0.087 H 
ATOM     14  H3  <0> d           1.584   2.898   0.002  0.00  0.00     0.111 H 
ATOM     15  H4  <0> d          -2.021  -0.728   0.017  0.00  0.00     0.116 H 
ATOM     16  H5  <0> d           2.710  -2.052  -0.035  0.00  0.00     0.091 H 
ENDROOT
TORSDOF 0
