REMARK  2 active torsions:
REMARK  status: ('A' for Active; 'I' for Inactive)
REMARK    1  A    between atoms: C3_4  and  N4_8 
REMARK    2  A    between atoms: C4_6  and  N3_7 
ROOT
ATOM      1  C1  <0> d          -2.426   0.938   0.019  0.00  0.00    -0.021 A 
ATOM      2  C2  <0> d          -3.607   1.654   0.028  0.00  0.00     0.025 A 
ATOM      3  N1  <0> d          -3.562   2.978   0.035  0.00  0.00    -0.075 NA
ATOM      4  C3  <0> d          -2.404   3.620   0.033  0.00  0.00     0.721 A 
ATOM      5  N2  <0> d          -1.249   2.971   0.030  0.00  0.00    -0.046 NA
ATOM      6  C4  <0> d          -1.220   1.642   0.017  0.00  0.00     0.141 A 
ATOM      7  H1  <0> d          -2.434  -0.142   0.013  0.00  0.00     0.091 H 
ATOM      8  H2  <0> d          -4.557   1.139   0.029  0.00  0.00     0.115 H 
ENDROOT
BRANCH   4   9
ATOM      9  N4  <0> d          -2.400   5.004   0.041  0.00  0.00    -0.231 N 
ATOM     10  H5  <0> d          -3.238   5.492   0.048  0.00  0.00     0.174 HD
ATOM     11  H6  <0> d          -1.558   5.487   0.040  0.00  0.00     0.174 HD
ENDBRANCH   4   9
BRANCH   6  12
ATOM     12  N3  <0> d          -0.011   0.966   0.007  0.00  0.00    -0.383 N 
ATOM     13  H3  <0> d           0.002  -0.004   0.002  0.00  0.00     0.157 HD
ATOM     14  H4  <0> d           0.822   1.462   0.002  0.00  0.00     0.157 HD
ENDBRANCH   6  12
TORSDOF 2
