REMARK  3 active torsions:
REMARK  status: ('A' for Active; 'I' for Inactive)
REMARK    1  A    between atoms: C1_1  and  C2_2 
REMARK    2  A    between atoms: C2_2  and  C7_11 
REMARK    3  A    between atoms: C4_5  and  C5_8 
ROOT
ATOM      1  C5  <0> d           1.409   1.650  -0.003  0.00  0.00     0.041 C 
ATOM      2  C6  <0> d           2.153   1.084  -1.140  0.00  0.00     0.061 C 
ATOM      3  N1  <0> d           2.728   0.648  -2.017  0.00  0.00    -0.197 NA
ATOM      4  H7  <0> d           1.369   2.735  -0.098  0.00  0.00     0.059 H 
ATOM      5  H8  <0> d           1.912   1.386   0.928  0.00  0.00     0.059 H 
ENDROOT
BRANCH   1   6
ATOM      6  C4  <0> d          -0.013   1.086   0.008  0.00  0.00     0.074 C 
ATOM      7  C3  <0> d          -0.814   1.623   1.220  0.00  0.00     0.048 C 
ATOM      8  O1  <0> d          -2.180   1.554   0.765  0.00  0.00    -0.353 OA
ATOM      9  H5  <0> d          -0.665   0.986   2.093  0.00  0.00     0.078 H 
ATOM     10  H6  <0> d          -0.533   2.653   1.442  0.00  0.00     0.078 H 
ATOM     11  C2  <0> d          -2.151   1.530  -0.668  0.00  0.00     0.157 C 
ATOM     12  O2  <0> d          -0.783   1.600  -1.105  0.00  0.00    -0.348 OA
ATOM     13  H1  <0> d           0.002  -0.004   0.002  0.00  0.00     0.088 H 
BRANCH  11  14
ATOM     14  C1  <0> d          -2.787   0.233  -1.173  0.00  0.00    -0.026 C 
ATOM     15  H2  <0> d          -3.828   0.190  -0.853  0.00  0.00     0.035 H 
ATOM     16  H3  <0> d          -2.740   0.206  -2.262  0.00  0.00     0.035 H 
ATOM     17  H4  <0> d          -2.245  -0.620  -0.765  0.00  0.00     0.035 H 
ENDBRANCH  11  14
BRANCH  11  18
ATOM     18  C7  <0> d          -2.925   2.730  -1.217  0.00  0.00    -0.026 C 
ATOM     19  H9  <0> d          -2.482   3.652  -0.840  0.00  0.00     0.035 H 
ATOM     20  H10 <0> d          -2.880   2.724  -2.306  0.00  0.00     0.035 H 
ATOM     21  H11 <0> d          -3.965   2.670  -0.897  0.00  0.00     0.035 H 
ENDBRANCH  11  18
ENDBRANCH   1   6
TORSDOF 3
