REMARK  8 active torsions:
REMARK  status: ('A' for Active; 'I' for Inactive)
REMARK    1  A    between atoms: C1_1  and  C2_2 
REMARK    2  A    between atoms: C2_2  and  C3_3 
REMARK    3  A    between atoms: C3_3  and  C4_5 
REMARK    4  A    between atoms: C3_3  and  C8_10 
REMARK    5  A    between atoms: C4_5  and  C5_6 
REMARK    6  A    between atoms: C5_6  and  O1_7 
REMARK    7  A    between atoms: O1_7  and  C6_8 
REMARK    8  A    between atoms: C6_8  and  C7_9 
ROOT
ATOM      1  C4  <0> d          -1.433  -0.534   0.013  0.00  0.00    -0.033 C 
ATOM      2  H7  <0> d          -1.944  -0.182   0.910  0.00  0.00     0.037 H 
ATOM      3  H8  <0> d          -1.960  -0.173  -0.870  0.00  0.00     0.037 H 
ENDROOT
BRANCH   1   4
ATOM      4  C3  <0> d          -1.413  -2.063   0.004  0.00  0.00     0.032 C 
ATOM      5  H1  <0> d          -0.826  -2.414  -0.845  0.00  0.00     0.056 H 
BRANCH   4   6
ATOM      6  C2  <0> d          -2.844  -2.592  -0.110  0.00  0.00    -0.056 C 
ATOM      7  H5  <0> d          -3.406  -2.317   0.782  0.00  0.00     0.033 H 
ATOM      8  H6  <0> d          -3.322  -2.159  -0.989  0.00  0.00     0.033 H 
BRANCH   6   9
ATOM      9  C1  <0> d          -2.815  -4.116  -0.244  0.00  0.00    -0.076 C 
ATOM     10  H2  <0> d          -3.835  -4.493  -0.326  0.00  0.00     0.027 H 
ATOM     11  H3  <0> d          -2.253  -4.392  -1.137  0.00  0.00     0.027 H 
ATOM     12  H4  <0> d          -2.337  -4.549   0.634  0.00  0.00     0.027 H 
ENDBRANCH   6   9
ENDBRANCH   4   6
BRANCH   4  13
ATOM     13  C8  <0> d          -0.793  -2.564   1.284  0.00  0.00     0.177 C 
ATOM     14  O2  <0> d          -0.408  -1.779   2.116  0.00  0.00    -0.648 OA
ATOM     15  O3  <0> d          -0.669  -3.884   1.498  0.00  0.00    -0.648 OA
ENDBRANCH   4  13
ENDBRANCH   1   4
BRANCH   1  16
ATOM     16  C5  <0> d           0.002  -0.004   0.002  0.00  0.00     0.020 C 
ATOM     17  H9  <0> d           0.512  -0.356  -0.895  0.00  0.00     0.074 H 
ATOM     18  H10 <0> d           0.529  -0.365   0.885  0.00  0.00     0.074 H 
BRANCH  16  19
ATOM     19  O1  <0> d          -0.017   1.425   0.010  0.00  0.00    -0.391 OA
BRANCH  19  20
ATOM     20  C6  <0> d           1.280   2.024   0.001  0.00  0.00     0.016 C 
ATOM     21  H11 <0> d           1.834   1.705   0.884  0.00  0.00     0.073 H 
ATOM     22  H12 <0> d           1.817   1.714  -0.896  0.00  0.00     0.073 H 
BRANCH  20  23
ATOM     23  C7  <0> d           1.139   3.547   0.010  0.00  0.00    -0.056 C 
ATOM     24  H13 <0> d           2.128   4.004   0.003  0.00  0.00     0.030 H 
ATOM     25  H14 <0> d           0.585   3.866  -0.873  0.00  0.00     0.030 H 
ATOM     26  H15 <0> d           0.602   3.857   0.907  0.00  0.00     0.030 H 
ENDBRANCH  20  23
ENDBRANCH  19  20
ENDBRANCH  16  19
ENDBRANCH   1  16
TORSDOF 8
