REMARK  3 active torsions:
REMARK  status: ('A' for Active; 'I' for Inactive)
REMARK    1  A    between atoms: C1_1  and  C2_2 
REMARK    2  A    between atoms: C3_4  and  C6_9 
REMARK    3  A    between atoms: C4_6  and  C5_8 
ROOT
ATOM      1  C2  <0> d           0.002  -0.004   0.002  0.00  0.00     0.133 C 
ATOM      2  O1  <0> d          -1.340  -0.502   0.024  0.00  0.00    -0.332 OA
ATOM      3  C3  <0> d          -1.417  -1.927   0.124  0.00  0.00     0.133 C 
ATOM      4  O2  <0> d          -0.688  -2.353   1.280  0.00  0.00    -0.332 OA
ATOM      5  C4  <0> d           0.672  -1.905   1.292  0.00  0.00     0.133 C 
ATOM      6  O3  <0> d           0.694  -0.480   1.161  0.00  0.00    -0.332 OA
ATOM      7  H4  <0> d           0.509  -0.357  -0.896  0.00  0.00     0.128 H 
ATOM      8  H5  <0> d          -0.983  -2.380  -0.768  0.00  0.00     0.128 H 
ATOM      9  H6  <0> d           1.212  -2.357   0.459  0.00  0.00     0.128 H 
ENDROOT
BRANCH   1  10
ATOM     10  C1  <0> d          -0.019   1.526   0.010  0.00  0.00    -0.031 C 
ATOM     11  H1  <0> d           1.004   1.903   0.003  0.00  0.00     0.034 H 
ATOM     12  H2  <0> d          -0.546   1.887  -0.873  0.00  0.00     0.034 H 
ATOM     13  H3  <0> d          -0.529   1.877   0.907  0.00  0.00     0.034 H 
ENDBRANCH   1  10
BRANCH   5  14
ATOM     14  C5  <0> d           1.333  -2.309   2.611  0.00  0.00    -0.031 C 
ATOM     15  H7  <0> d           1.307  -3.394   2.714  0.00  0.00     0.034 H 
ATOM     16  H8  <0> d           2.368  -1.968   2.619  0.00  0.00     0.034 H 
ATOM     17  H9  <0> d           0.794  -1.853   3.442  0.00  0.00     0.034 H 
ENDBRANCH   5  14
BRANCH   3  18
ATOM     18  C6  <0> d          -2.881  -2.353   0.257  0.00  0.00    -0.031 C 
ATOM     19  H10 <0> d          -3.437  -2.021  -0.620  0.00  0.00     0.034 H 
ATOM     20  H11 <0> d          -2.938  -3.439   0.333  0.00  0.00     0.034 H 
ATOM     21  H12 <0> d          -3.310  -1.903   1.152  0.00  0.00     0.034 H 
ENDBRANCH   3  18
TORSDOF 3
