REMARK  6 active torsions:
REMARK  status: ('A' for Active; 'I' for Inactive)
REMARK    1  A    between atoms: C1_1  and  C2_2 
REMARK    2  A    between atoms: C2_2  and  N1_3 
REMARK    3  A    between atoms: N1_3  and  C3_4 
REMARK       I    between atoms: N1_3  and  C5_6 
REMARK    4  A    between atoms: C3_4  and  C4_5 
REMARK    5  A    between atoms: C5_6  and  C6_8 
REMARK    6  A    between atoms: C6_8  and  O2_9 
ROOT
ATOM      1  N1  <0> d           1.143   1.898   0.001  0.00  0.00    -0.351 N 
ATOM      2  C5  <0> d          -0.014   1.209   0.009  0.00  0.00     0.243 C 
ATOM      3  O1  <0> d           0.002  -0.004   0.002  0.00  0.00    -0.271 OA
ENDROOT
BRANCH   1   4
ATOM      4  C2  <0> d           1.124   3.363   0.009  0.00  0.00    -0.006 C 
ATOM      5  H4  <0> d           2.004   3.741  -0.511  0.00  0.00     0.063 H 
ATOM      6  H5  <0> d           0.224   3.717  -0.494  0.00  0.00     0.063 H 
BRANCH   4   7
ATOM      7  C1  <0> d           1.131   3.865   1.455  0.00  0.00    -0.061 C 
ATOM      8  H1  <0> d           1.116   4.955   1.461  0.00  0.00     0.029 H 
ATOM      9  H2  <0> d           0.251   3.487   1.975  0.00  0.00     0.029 H 
ATOM     10  H3  <0> d           2.030   3.511   1.958  0.00  0.00     0.029 H 
ENDBRANCH   4   7
ENDBRANCH   1   4
BRANCH   1  11
ATOM     11  C3  <0> d           2.422   1.183  -0.015  0.00  0.00    -0.006 C 
ATOM     12  H6  <0> d           3.179   1.780   0.495  0.00  0.00     0.063 H 
ATOM     13  H7  <0> d           2.309   0.226   0.495  0.00  0.00     0.063 H 
BRANCH  11  14
ATOM     14  C4  <0> d           2.853   0.942  -1.463  0.00  0.00    -0.061 C 
ATOM     15  H8  <0> d           3.804   0.410  -1.475  0.00  0.00     0.029 H 
ATOM     16  H9  <0> d           2.097   0.345  -1.973  0.00  0.00     0.029 H 
ATOM     17  H10 <0> d           2.966   1.899  -1.972  0.00  0.00     0.029 H 
ENDBRANCH  11  14
ENDBRANCH   1  11
BRANCH   2  18
ATOM     18  C6  <0> d          -1.330   1.944   0.019  0.00  0.00     0.090 C 
ATOM     19  H11 <0> d          -1.392   2.565   0.913  0.00  0.00     0.088 H 
ATOM     20  H12 <0> d          -1.400   2.575  -0.867  0.00  0.00     0.088 H 
BRANCH  18  21
ATOM     21  O2  <0> d          -2.403   1.001   0.019  0.00  0.00    -0.392 OA
ATOM     22  H13 <0> d          -3.282   1.405   0.025  0.00  0.00     0.210 HD
ENDBRANCH  18  21
ENDBRANCH   2  18
TORSDOF 6
