REMARK  2 active torsions:
REMARK  status: ('A' for Active; 'I' for Inactive)
REMARK    1  A    between atoms: C1_1  and  C2_2 
REMARK    2  A    between atoms: C4_4  and  N2_7 
ROOT
ATOM      1  C2  <0> d          -0.654   3.484   0.027  0.00  0.00     0.079 A 
ATOM      2  C3  <0> d          -1.164   2.231   0.019  0.00  0.00    -0.006 A 
ATOM      3  C4  <0> d          -0.017   1.394   0.010  0.00  0.00     0.163 A 
ATOM      4  N1  <0> d           1.017   2.193   0.004  0.00  0.00    -0.109 NA
ATOM      5  O1  <0> d           0.681   3.354   0.014  0.00  0.00    -0.216 OA
ATOM      6  H4  <0> d          -2.203   1.936   0.021  0.00  0.00     0.093 H 
ENDROOT
BRANCH   3   7
ATOM      7  N2  <0> d           0.002  -0.004   0.002  0.00  0.00    -0.316 N 
ATOM      8  C8  <0> d           1.123  -0.786  -0.012  0.00  0.00    -0.014 A 
ATOM      9  C7  <0> d           0.735  -2.077  -0.015  0.00  0.00    -0.066 A 
ATOM     10  H8  <0> d           2.143  -0.431  -0.020  0.00  0.00     0.112 H 
ATOM     11  C6  <0> d          -0.674  -2.096  -0.002  0.00  0.00    -0.066 A 
ATOM     12  H7  <0> d           1.386  -2.939  -0.025  0.00  0.00     0.085 H 
ATOM     13  C5  <0> d          -1.097  -0.816   0.014  0.00  0.00    -0.014 A 
ATOM     14  H6  <0> d          -1.301  -2.976  -0.001  0.00  0.00     0.085 H 
ATOM     15  H5  <0> d          -2.126  -0.489   0.030  0.00  0.00     0.112 H 
ENDBRANCH   3   7
BRANCH   1  16
ATOM     16  C1  <0> d          -1.433   4.774   0.041  0.00  0.00    -0.029 C 
ATOM     17  H1  <0> d          -0.742   5.616   0.038  0.00  0.00     0.036 H 
ATOM     18  H2  <0> d          -2.069   4.823  -0.843  0.00  0.00     0.036 H 
ATOM     19  H3  <0> d          -2.053   4.814   0.937  0.00  0.00     0.036 H 
ENDBRANCH   1  16
TORSDOF 2
