REMARK  3 active torsions:
REMARK  status: ('A' for Active; 'I' for Inactive)
REMARK    1  A    between atoms: C1_1  and  C2_2 
REMARK    2  A    between atoms: C4_4  and  C7_8 
REMARK    3  A    between atoms: C7_8  and  O1_9 
ROOT
ATOM      1  C2  <0> d           1.133  -0.682  -0.012  0.00  0.00     0.030 A 
ATOM      2  C3  <0> d           2.350  -0.027  -0.021  0.00  0.00    -0.051 A 
ATOM      3  C4  <0> d           2.371   1.359  -0.013  0.00  0.00    -0.032 A 
ATOM      4  C5  <0> d           1.162   2.038   0.002  0.00  0.00    -0.058 A 
ATOM      5  C6  <0> d          -0.016   1.315   0.009  0.00  0.00     0.003 A 
ATOM      6  N1  <0> d           0.002  -0.004   0.002  0.00  0.00    -0.266 NA
ATOM      7  H4  <0> d           3.273  -0.588  -0.033  0.00  0.00     0.087 H 
ATOM      8  H5  <0> d           1.141   3.117   0.008  0.00  0.00     0.086 H 
ATOM      9  H6  <0> d          -0.962   1.836   0.017  0.00  0.00     0.114 H 
ENDROOT
BRANCH   3  10
ATOM     10  C7  <0> d           3.677   2.111  -0.021  0.00  0.00     0.041 C 
ATOM     11  H7  <0> d           3.552   3.069   0.504  0.00  0.00     0.081 H 
ATOM     12  H8  <0> d           4.448   1.512   0.487  0.00  0.00     0.081 H 
BRANCH  10  13
ATOM     13  O1  <0> d           4.078   2.356  -1.371  0.00  0.00    -0.396 OA
ATOM     14  H9  <0> d           5.013   2.896  -1.578  0.00  0.00     0.209 HD
ENDBRANCH  10  13
ENDBRANCH   3  10
BRANCH   1  15
ATOM     15  C1  <0> d           1.098  -2.189  -0.021  0.00  0.00    -0.035 C 
ATOM     16  H1  <0> d           2.126  -2.579  -0.033  0.00  0.00     0.035 H 
ATOM     17  H2  <0> d           0.562  -2.538  -0.916  0.00  0.00     0.035 H 
ATOM     18  H3  <0> d           0.579  -2.548   0.880  0.00  0.00     0.035 H 
ENDBRANCH   1  15
TORSDOF 3
