REMARK  3 active torsions:
REMARK  status: ('A' for Active; 'I' for Inactive)
REMARK    1  A    between atoms: C1_1  and  O1_2 
REMARK    2  A    between atoms: O1_2  and  C2_3 
REMARK    3  A    between atoms: C6_8  and  O2_10 
ROOT
ATOM      1  C2  <0> d          -1.272   3.036  -0.741  0.00  0.00     0.062 C 
ATOM      2  H1  <0> d          -0.577   3.787  -1.117  0.00  0.00     0.087 H 
ATOM      3  C3  <0> d          -0.825   1.630  -1.193  0.00  0.00    -0.038 C 
ATOM      4  C4  <0> d          -0.013   1.086   0.008  0.00  0.00    -0.060 C 
ATOM      5  C5  <0> d          -0.802   1.617   1.230  0.00  0.00    -0.039 C 
ATOM      6  C6  <0> d          -1.260   3.028   0.798  0.00  0.00     0.060 C 
ATOM      7  H2  <0> d          -0.559   3.776   1.170  0.00  0.00     0.086 H 
ATOM      8  H6  <0> d          -0.196   1.697  -2.080  0.00  0.00     0.036 H 
ATOM      9  H7  <0> d          -1.692   0.998  -1.385  0.00  0.00     0.036 H 
ATOM     10  H8  <0> d           0.002  -0.004   0.002  0.00  0.00     0.033 H 
ATOM     11  H9  <0> d           1.002   1.484   0.001  0.00  0.00     0.033 H 
ATOM     12  H10 <0> d          -1.665   0.983   1.432  0.00  0.00     0.036 H 
ATOM     13  H11 <0> d          -0.156   1.674   2.106  0.00  0.00     0.036 H 
ENDROOT
BRANCH   1  14
ATOM     14  O1  <0> d          -2.591   3.308  -1.219  0.00  0.00    -0.388 OA
BRANCH  14  15
ATOM     15  C1  <0> d          -2.626   3.958  -2.491  0.00  0.00     0.005 C 
ATOM     16  H3  <0> d          -2.138   3.328  -3.235  0.00  0.00     0.066 H 
ATOM     17  H4  <0> d          -3.662   4.129  -2.783  0.00  0.00     0.066 H 
ATOM     18  H5  <0> d          -2.105   4.913  -2.425  0.00  0.00     0.066 H 
ENDBRANCH  14  15
ENDBRANCH   1  14
BRANCH   6  19
ATOM     19  O2  <0> d          -2.571   3.294   1.299  0.00  0.00    -0.393 OA
ATOM     20  H12 <0> d          -2.630   3.303   2.264  0.00  0.00     0.210 HD
ENDBRANCH   6  19
TORSDOF 3
