REMARK  3 active torsions:
REMARK  status: ('A' for Active; 'I' for Inactive)
REMARK    1  A    between atoms: C1_1  and  C2_2 
REMARK    2  A    between atoms: C2_2  and  O1_3 
REMARK    3  A    between atoms: O1_3  and  C3_4 
ROOT
ATOM      1  C3  <0> d          -0.628   1.513   3.661  0.00  0.00     0.105 C 
ATOM      2  H1  <0> d          -1.694   1.288   3.661  0.00  0.00     0.117 H 
ATOM      3  C4  <0> d           0.069   0.806   4.844  0.00  0.00    -0.017 C 
ATOM      4  C5  <0> d           0.041   1.907   5.930  0.00  0.00     0.013 C 
ATOM      5  C6  <0> d          -0.040   3.198   5.146  0.00  0.00     0.219 C 
ATOM      6  O2  <0> d           0.196   4.299   5.596  0.00  0.00    -0.274 OA
ATOM      7  N1  <0> d          -0.411   2.948   3.879  0.00  0.00    -0.335 N 
ATOM      8  H7  <0> d          -0.496  -0.070   5.162  0.00  0.00     0.040 H 
ATOM      9  H8  <0> d           1.094   0.536   4.589  0.00  0.00     0.040 H 
ATOM     10  H9  <0> d           0.953   1.878   6.526  0.00  0.00     0.047 H 
ATOM     11  H10 <0> d          -0.836   1.791   6.567  0.00  0.00     0.047 H 
ATOM     12  H11 <0> d          -0.521   3.628   3.196  0.00  0.00     0.165 HD
ENDROOT
BRANCH   1  13
ATOM     13  O1  <0> d          -0.038   1.106   2.425  0.00  0.00    -0.367 OA
BRANCH  13  14
ATOM     14  C2  <0> d          -0.729   1.579   1.267  0.00  0.00     0.019 C 
ATOM     15  H5  <0> d          -0.744   2.669   1.273  0.00  0.00     0.073 H 
ATOM     16  H6  <0> d          -1.751   1.202   1.275  0.00  0.00     0.073 H 
BRANCH  14  17
ATOM     17  C1  <0> d          -0.013   1.086   0.008  0.00  0.00    -0.056 C 
ATOM     18  H2  <0> d           0.002  -0.004   0.002  0.00  0.00     0.030 H 
ATOM     19  H3  <0> d           1.010   1.463   0.000  0.00  0.00     0.030 H 
ATOM     20  H4  <0> d          -0.540   1.447  -0.875  0.00  0.00     0.030 H 
ENDBRANCH  14  17
ENDBRANCH  13  14
ENDBRANCH   1  13
TORSDOF 3
