REMARK  2 active torsions:
REMARK  status: ('A' for Active; 'I' for Inactive)
REMARK    1  A    between atoms: C1_1  and  C2_2 
REMARK    2  A    between atoms: C5_5  and  O1_11 
ROOT
ATOM      1  C2  <0> d          -0.017   1.381   0.010  0.00  0.00    -0.055 A 
ATOM      2  C3  <0> d           1.166   2.095   0.002  0.00  0.00    -0.074 A 
ATOM      3  C4  <0> d           2.375   1.427  -0.014  0.00  0.00    -0.050 A 
ATOM      4  C5  <0> d           2.399   0.041  -0.021  0.00  0.00     0.072 A 
ATOM      5  C6  <0> d           1.209  -0.676  -0.013  0.00  0.00    -0.018 A 
ATOM      6  C7  <0> d           0.002  -0.004   0.002  0.00  0.00    -0.043 A 
ATOM      7  C8  <0> d          -1.138  -1.000   0.008  0.00  0.00    -0.040 C 
ATOM      8  C9  <0> d          -0.502  -2.340   0.434  0.00  0.00    -0.058 C 
ATOM      9  C10 <0> d           0.964  -2.170  -0.019  0.00  0.00    -0.037 C 
ATOM     10  H4  <0> d           1.145   3.175   0.008  0.00  0.00     0.084 H 
ATOM     11  H5  <0> d           3.301   1.984  -0.020  0.00  0.00     0.087 H 
ATOM     12  H6  <0> d          -1.901  -0.698   0.725  0.00  0.00     0.040 H 
ATOM     13  H7  <0> d          -1.570  -1.086  -0.989  0.00  0.00     0.040 H 
ATOM     14  H8  <0> d          -0.560  -2.470   1.515  0.00  0.00     0.033 H 
ATOM     15  H9  <0> d          -0.973  -3.175  -0.084  0.00  0.00     0.033 H 
ATOM     16  H10 <0> d           1.636  -2.666   0.681  0.00  0.00     0.040 H 
ATOM     17  H11 <0> d           1.099  -2.573  -1.022  0.00  0.00     0.040 H 
ENDROOT
BRANCH   1  18
ATOM     18  C1  <0> d          -1.334   2.113   0.020  0.00  0.00    -0.051 C 
ATOM     19  H1  <0> d          -1.647   2.284   1.050  0.00  0.00     0.033 H 
ATOM     20  H2  <0> d          -1.222   3.070  -0.489  0.00  0.00     0.033 H 
ATOM     21  H3  <0> d          -2.086   1.514  -0.494  0.00  0.00     0.033 H 
ENDBRANCH   1  18
BRANCH   4  22
ATOM     22  O1  <0> d           3.588  -0.617  -0.036  0.00  0.00    -0.360 OA
ATOM     23  H12 <0> d           3.923  -0.803  -0.924  0.00  0.00     0.217 HD
ENDBRANCH   4  22
TORSDOF 2
