REMARK  4 active torsions:
REMARK  status: ('A' for Active; 'I' for Inactive)
REMARK    1  A    between atoms: C1_1  and  C2_2 
REMARK    2  A    between atoms: C2_2  and  C3_3 
REMARK    3  A    between atoms: C5_5  and  C9_10 
REMARK    4  A    between atoms: C9_10  and  O1_11 
ROOT
ATOM      1  C3  <0> d          -1.412  -0.526   0.013  0.00  0.00    -0.019 A 
ATOM      2  C4  <0> d          -1.998  -0.959  -1.162  0.00  0.00    -0.066 A 
ATOM      3  C5  <0> d          -3.294  -1.438  -1.152  0.00  0.00    -0.034 A 
ATOM      4  C6  <0> d          -4.007  -1.483   0.032  0.00  0.00    -0.072 A 
ATOM      5  C7  <0> d          -3.423  -1.051   1.207  0.00  0.00    -0.045 A 
ATOM      6  C8  <0> d          -2.122  -0.576   1.200  0.00  0.00     0.122 A 
ATOM      7  F1  <0> d          -1.549  -0.158   2.349  0.00  0.00    -0.206 F 
ATOM      8  H6  <0> d          -1.442  -0.923  -2.087  0.00  0.00     0.085 H 
ATOM      9  H7  <0> d          -5.020  -1.857   0.038  0.00  0.00     0.084 H 
ATOM     10  H8  <0> d          -3.980  -1.087   2.132  0.00  0.00     0.088 H 
ENDROOT
BRANCH   1  11
ATOM     11  C2  <0> d           0.002  -0.004   0.002  0.00  0.00    -0.041 C 
ATOM     12  H4  <0> d           0.512  -0.356  -0.895  0.00  0.00     0.039 H 
ATOM     13  H5  <0> d           0.529  -0.365   0.885  0.00  0.00     0.039 H 
BRANCH  11  14
ATOM     14  C1  <0> d          -0.019   1.526   0.010  0.00  0.00    -0.073 C 
ATOM     15  H1  <0> d           1.004   1.903   0.003  0.00  0.00     0.028 H 
ATOM     16  H2  <0> d          -0.546   1.887  -0.873  0.00  0.00     0.028 H 
ATOM     17  H3  <0> d          -0.529   1.877   0.907  0.00  0.00     0.028 H 
ENDBRANCH  11  14
ENDBRANCH   1  11
BRANCH   3  18
ATOM     18  C9  <0> d          -3.932  -1.909  -2.433  0.00  0.00     0.040 C 
ATOM     19  H9  <0> d          -5.008  -1.743  -2.386  0.00  0.00     0.081 H 
ATOM     20  H10 <0> d          -3.515  -1.353  -3.273  0.00  0.00     0.081 H 
BRANCH  18  21
ATOM     21  O1  <0> d          -3.673  -3.303  -2.610  0.00  0.00    -0.396 OA
ATOM     22  H11 <0> d          -4.055  -3.676  -3.416  0.00  0.00     0.209 HD
ENDBRANCH  18  21
ENDBRANCH   3  18
TORSDOF 4
