REMARK  3 active torsions:
REMARK  status: ('A' for Active; 'I' for Inactive)
REMARK    1  A    between atoms: C1_1  and  C2_2 
REMARK    2  A    between atoms: C2_2  and  C3_3 
REMARK    3  A    between atoms: C3_3  and  C4_4 
ROOT
ATOM      1  C4  <0> d          -0.013   1.086   0.008  0.00  0.00     0.131 C 
ATOM      2  O1  <0> d          -0.641   1.581  -1.194  0.00  0.00    -0.359 OA
ATOM      3  C5  <0> d           0.413   1.483  -2.183  0.00  0.00     0.042 C 
ATOM      4  C6  <0> d           1.678   1.849  -1.376  0.00  0.00     0.042 C 
ATOM      5  O2  <0> d           1.331   1.599  -0.002  0.00  0.00    -0.359 OA
ATOM      6  H8  <0> d           0.002  -0.004   0.002  0.00  0.00     0.129 H 
ATOM      7  H9  <0> d           0.251   2.197  -2.991  0.00  0.00     0.077 H 
ATOM      8  H10 <0> d           0.484   0.468  -2.573  0.00  0.00     0.077 H 
ATOM      9  H11 <0> d           1.927   2.900  -1.518  0.00  0.00     0.077 H 
ATOM     10  H12 <0> d           2.515   1.218  -1.675  0.00  0.00     0.077 H 
ENDROOT
BRANCH   1  11
ATOM     11  C3  <0> d          -0.761   1.595   1.242  0.00  0.00    -0.019 C 
ATOM     12  H6  <0> d          -0.206   1.325   2.140  0.00  0.00     0.040 H 
ATOM     13  H7  <0> d          -0.858   2.679   1.187  0.00  0.00     0.040 H 
BRANCH  11  14
ATOM     14  C2  <0> d          -2.152   0.960   1.292  0.00  0.00    -0.064 C 
ATOM     15  H4  <0> d          -2.707   1.230   0.394  0.00  0.00     0.032 H 
ATOM     16  H5  <0> d          -2.055  -0.124   1.348  0.00  0.00     0.032 H 
BRANCH  14  17
ATOM     17  C1  <0> d          -2.900   1.469   2.526  0.00  0.00    -0.076 C 
ATOM     18  H1  <0> d          -2.345   1.199   3.425  0.00  0.00     0.027 H 
ATOM     19  H2  <0> d          -2.997   2.553   2.471  0.00  0.00     0.027 H 
ATOM     20  H3  <0> d          -3.892   1.017   2.562  0.00  0.00     0.027 H 
ENDBRANCH  14  17
ENDBRANCH  11  14
ENDBRANCH   1  11
TORSDOF 3
