REMARK  6 active torsions:
REMARK  status: ('A' for Active; 'I' for Inactive)
REMARK    1  A    between atoms: C1_1  and  C2_2 
REMARK    2  A    between atoms: C2_2  and  C3_3 
REMARK    3  A    between atoms: C2_2  and  C4_4 
REMARK    4  A    between atoms: C4_4  and  C5_5 
REMARK    5  A    between atoms: C5_5  and  C6_6 
REMARK    6  A    between atoms: C6_6  and  C7_7 
REMARK       I    between atoms: C7_7  and  N1_9 
ROOT
ATOM      1  C4  <0> d          -2.678   5.151   0.043  0.00  0.00    -0.062 C 
ATOM      2  H8  <0> d          -2.165   5.516   0.932  0.00  0.00     0.033 H 
ATOM      3  H9  <0> d          -2.173   5.526  -0.848  0.00  0.00     0.033 H 
ENDROOT
BRANCH   1   4
ATOM      4  C2  <0> d          -4.127   5.641   0.052  0.00  0.00    -0.061 C 
ATOM      5  H4  <0> d          -4.664   5.204  -0.789  0.00  0.00     0.038 H 
BRANCH   4   6
ATOM      6  C1  <0> d          -4.799   5.220   1.361  0.00  0.00    -0.073 C 
ATOM      7  H1  <0> d          -5.832   5.569   1.367  0.00  0.00     0.028 H 
ATOM      8  H2  <0> d          -4.783   4.133   1.444  0.00  0.00     0.028 H 
ATOM      9  H3  <0> d          -4.262   5.657   2.202  0.00  0.00     0.028 H 
ENDBRANCH   4   6
BRANCH   4  10
ATOM     10  C3  <0> d          -4.150   7.166  -0.065  0.00  0.00    -0.073 C 
ATOM     11  H5  <0> d          -3.671   7.466  -0.997  0.00  0.00     0.028 H 
ATOM     12  H6  <0> d          -5.183   7.516  -0.058  0.00  0.00     0.028 H 
ATOM     13  H7  <0> d          -3.613   7.604   0.777  0.00  0.00     0.028 H 
ENDBRANCH   4  10
ENDBRANCH   1   4
BRANCH   1  14
ATOM     14  C5  <0> d          -2.657   3.621   0.034  0.00  0.00    -0.057 C 
ATOM     15  H10 <0> d          -3.170   3.256  -0.855  0.00  0.00     0.033 H 
ATOM     16  H11 <0> d          -3.162   3.246   0.925  0.00  0.00     0.033 H 
BRANCH  14  17
ATOM     17  C6  <0> d          -1.208   3.131   0.025  0.00  0.00     0.009 C 
ATOM     18  H12 <0> d          -0.695   3.496   0.914  0.00  0.00     0.047 H 
ATOM     19  H13 <0> d          -0.703   3.506  -0.866  0.00  0.00     0.047 H 
BRANCH  17  20
ATOM     20  C7  <0> d          -1.187   1.624   0.017  0.00  0.00     0.215 C 
ATOM     21  O1  <0> d          -2.229   1.003   0.018  0.00  0.00    -0.274 OA
ATOM     22  N1  <0> d          -0.011   0.966   0.007  0.00  0.00    -0.370 N 
ATOM     23  H14 <0> d           0.002  -0.004   0.002  0.00  0.00     0.159 HD
ATOM     24  H15 <0> d           0.822   1.462   0.002  0.00  0.00     0.159 HD
ENDBRANCH  17  20
ENDBRANCH  14  17
ENDBRANCH   1  14
TORSDOF 6
