REMARK  5 active torsions:
REMARK  status: ('A' for Active; 'I' for Inactive)
REMARK    1  A    between atoms: C1_1  and  C2_2 
REMARK    2  A    between atoms: C3_4  and  C9_11 
REMARK    3  A    between atoms: C4_6  and  C5_7 
REMARK    4  A    between atoms: C6_8  and  C7_9 
REMARK    5  A    between atoms: C6_8  and  C8_10 
ROOT
ATOM      1  C2  <0> d           1.429  -0.506  -0.014  0.00  0.00     0.009 A 
ATOM      2  C3  <0> d           0.002  -0.004   0.002  0.00  0.00     0.086 A 
ATOM      3  N1  <0> d          -0.214   0.678   1.065  0.00  0.00    -0.284 NA
ATOM      4  C4  <0> d           0.846   0.792   1.905  0.00  0.00     0.013 A 
ATOM      5  C6  <0> d           2.017   0.044   1.303  0.00  0.00     0.003 A 
ENDROOT
BRANCH   5   6
ATOM      6  C7  <0> d           2.459  -1.100   2.218  0.00  0.00    -0.063 C 
ATOM      7  H7  <0> d           3.220  -1.695   1.714  0.00  0.00     0.029 H 
ATOM      8  H8  <0> d           2.870  -0.689   3.140  0.00  0.00     0.029 H 
ATOM      9  H9  <0> d           1.601  -1.730   2.452  0.00  0.00     0.029 H 
ENDBRANCH   5   6
BRANCH   5  10
ATOM     10  C8  <0> d           3.182   0.996   1.021  0.00  0.00    -0.063 C 
ATOM     11  H10 <0> d           2.830   1.832   0.417  0.00  0.00     0.029 H 
ATOM     12  H11 <0> d           3.581   1.371   1.964  0.00  0.00     0.029 H 
ATOM     13  H12 <0> d           3.965   0.462   0.482  0.00  0.00     0.029 H 
ENDBRANCH   5  10
BRANCH   1  14
ATOM     14  C1  <0> d           1.699  -1.322  -1.280  0.00  0.00    -0.065 C 
ATOM     15  H2  <0> d           1.510  -0.704  -2.158  0.00  0.00     0.028 H 
ATOM     16  H3  <0> d           2.738  -1.652  -1.285  0.00  0.00     0.028 H 
ATOM     17  H4  <0> d           1.042  -2.191  -1.299  0.00  0.00     0.028 H 
ENDBRANCH   1  14
BRANCH   4  18
ATOM     18  C5  <0> d           0.854   1.449   3.059  0.00  0.00    -0.039 C 
ATOM     19  H1  <0> d           1.126   2.398   2.901  0.00  0.00     0.035 H 
ATOM     20  H5  <0> d          -0.039   1.952   3.401  0.00  0.00     0.035 H 
ATOM     21  H6  <0> d           1.753   1.480   3.656  0.00  0.00     0.035 H 
ENDBRANCH   4  18
BRANCH   2  22
ATOM     22  C9  <0> d          -1.222  -0.884   0.009  0.00  0.00    -0.048 C 
ATOM     23  H13 <0> d          -2.042  -0.312   0.020  0.00  0.00     0.031 H 
ATOM     24  H14 <0> d          -1.225  -1.508  -0.884  0.00  0.00     0.031 H 
ATOM     25  H15 <0> d          -1.208  -1.517   0.896  0.00  0.00     0.031 H 
ENDBRANCH   2  22
TORSDOF 5
