REMARK  2 active torsions:
REMARK  status: ('A' for Active; 'I' for Inactive)
REMARK    1  A    between atoms: C1_1  and  O1_2 
REMARK    2  A    between atoms: O1_2  and  C2_3 
ROOT
ATOM      1  C2  <0> d           1.162   1.808   0.001  0.00  0.00     0.092 A 
ATOM      2  C3  <0> d          -0.013   1.076   0.008  0.00  0.00     0.018 A 
ATOM      3  C4  <0> d          -1.225   1.787   0.017  0.00  0.00     0.264 A 
ATOM      4  O2  <0> d          -2.290   1.190   0.019  0.00  0.00    -0.267 OA
ATOM      5  N1  <0> d          -1.202   3.133   0.030  0.00  0.00    -0.244 N 
ATOM      6  H1  <0> d          -2.042   3.618   0.041  0.00  0.00     0.192 HD
ATOM      7  N2  <0> d          -0.102   3.795   0.024  0.00  0.00    -0.182 NA
ATOM      8  C5  <0> d           1.065   3.217   0.009  0.00  0.00     0.054 A 
ATOM      9  H5  <0> d           0.002  -0.004   0.002  0.00  0.00     0.096 H 
ATOM     10  H6  <0> d           1.962   3.818   0.004  0.00  0.00     0.121 H 
ENDROOT
BRANCH   1  11
ATOM     11  O1  <0> d           2.368   1.192  -0.015  0.00  0.00    -0.354 OA
BRANCH  11  12
ATOM     12  C1  <0> d           2.367  -0.237  -0.023  0.00  0.00     0.010 C 
ATOM     13  H2  <0> d           3.394  -0.601  -0.035  0.00  0.00     0.066 H 
ATOM     14  H3  <0> d           1.861  -0.605   0.870  0.00  0.00     0.066 H 
ATOM     15  H4  <0> d           1.844  -0.594  -0.910  0.00  0.00     0.066 H 
ENDBRANCH  11  12
ENDBRANCH   1  11
TORSDOF 2
