REMARK  1 active torsions:
REMARK  status: ('A' for Active; 'I' for Inactive)
REMARK    1  A    between atoms: C1_1  and  C2_2 
ROOT
ATOM      1  C2  <0> d           2.128   1.634   1.285  0.00  0.00     0.000 C 
ATOM      2  H1  <0> d           1.695   2.069   2.075  0.00  0.00     0.051 H 
ATOM      3  C3  <0> d           1.413   2.063  -0.000  0.00  0.00    -0.056 C 
ATOM      4  C4  <0> d          -0.019   1.525   0.010  0.00  0.00    -0.064 C 
ATOM      5  C5  <0> d           0.002  -0.004   0.002  0.00  0.00    -0.059 C 
ATOM      6  C6  <0> d           0.664  -0.511   1.288  0.00  0.00    -0.009 C 
ATOM      7  C7  <0> d           2.028   0.130   1.411  0.00  0.00     0.130 C 
ATOM      8  O1  <0> d           3.013  -0.542   1.605  0.00  0.00    -0.298 OA
ATOM      9  H5  <0> d           1.945   1.663  -0.863  0.00  0.00     0.034 H 
ATOM     10  H6  <0> d           1.392   3.152  -0.058  0.00  0.00     0.034 H 
ATOM     11  H7  <0> d          -0.548   1.885  -0.872  0.00  0.00     0.033 H 
ATOM     12  H8  <0> d          -0.531   1.876   0.907  0.00  0.00     0.033 H 
ATOM     13  H9  <0> d          -1.019  -0.381  -0.054  0.00  0.00     0.033 H 
ATOM     14  H10 <0> d           0.568  -0.355  -0.861  0.00  0.00     0.033 H 
ATOM     15  H11 <0> d           0.098  -0.264   2.074  0.00  0.00     0.044 H 
ATOM     16  H12 <0> d           0.768  -1.595   1.242  0.00  0.00     0.044 H 
ENDROOT
BRANCH   1  17
ATOM     17  C1  <0> d           3.599   2.048   1.218  0.00  0.00    -0.066 C 
ATOM     18  H2  <0> d           4.069   1.580   0.352  0.00  0.00     0.028 H 
ATOM     19  H3  <0> d           3.668   3.132   1.127  0.00  0.00     0.028 H 
ATOM     20  H4  <0> d           4.109   1.726   2.126  0.00  0.00     0.028 H 
ENDBRANCH   1  17
TORSDOF 1
