REMARK  5 active torsions:
REMARK  status: ('A' for Active; 'I' for Inactive)
REMARK    1  A    between atoms: C1_1  and  C2_2 
REMARK    2  A    between atoms: C2_2  and  C3_4 
REMARK    3  A    between atoms: C2_2  and  C8_10 
REMARK    4  A    between atoms: C3_4  and  C4_5 
REMARK    5  A    between atoms: C8_10  and  C9_12 
ROOT
ATOM      1  C2  <0> d           0.002  -0.004   0.002  0.00  0.00     0.005 C 
ATOM      2  H1  <0> d           0.512  -0.356  -0.895  0.00  0.00     0.051 H 
ENDROOT
BRANCH   1   3
ATOM      3  C1  <0> d          -0.019   1.526   0.010  0.00  0.00    -0.066 C 
ATOM      4  H2  <0> d           1.004   1.903   0.003  0.00  0.00     0.028 H 
ATOM      5  H3  <0> d          -0.546   1.887  -0.873  0.00  0.00     0.028 H 
ATOM      6  H4  <0> d          -0.529   1.877   0.907  0.00  0.00     0.028 H 
ENDBRANCH   1   3
BRANCH   1   7
ATOM      7  C3  <0> d           0.742  -0.511   1.242  0.00  0.00    -0.011 C 
ATOM      8  H5  <0> d           0.285  -0.087   2.136  0.00  0.00     0.044 H 
ATOM      9  H6  <0> d           0.680  -1.598   1.282  0.00  0.00     0.044 H 
BRANCH   7  10
ATOM     10  C4  <0> d           2.188  -0.092   1.170  0.00  0.00     0.053 A 
ATOM     11  O1  <0> d           3.183  -0.799   0.610  0.00  0.00    -0.327 OA
ATOM     12  C7  <0> d           4.336  -0.119   0.726  0.00  0.00     0.019 A 
ATOM     13  C6  <0> d           4.086   1.033   1.374  0.00  0.00    -0.059 A 
ATOM     14  H9  <0> d           5.300  -0.443   0.364  0.00  0.00     0.123 H 
ATOM     15  C5  <0> d           2.701   1.050   1.660  0.00  0.00    -0.052 A 
ATOM     16  H8  <0> d           4.805   1.798   1.627  0.00  0.00     0.086 H 
ATOM     17  H7  <0> d           2.160   1.831   2.173  0.00  0.00     0.087 H 
ENDBRANCH   7  10
ENDBRANCH   1   7
BRANCH   1  18
ATOM     18  C8  <0> d          -1.412  -0.526   0.013  0.00  0.00     0.127 C 
ATOM     19  O2  <0> d          -1.968  -0.740   1.063  0.00  0.00    -0.298 OA
BRANCH  18  20
ATOM     20  C9  <0> d          -2.131  -0.779  -1.287  0.00  0.00    -0.021 C 
ATOM     21  H10 <0> d          -1.474  -0.530  -2.120  0.00  0.00     0.037 H 
ATOM     22  H11 <0> d          -2.412  -1.831  -1.348  0.00  0.00     0.037 H 
ATOM     23  H12 <0> d          -3.027  -0.161  -1.333  0.00  0.00     0.037 H 
ENDBRANCH  18  20
ENDBRANCH   1  18
TORSDOF 5
