REMARK  3 active torsions:
REMARK  status: ('A' for Active; 'I' for Inactive)
REMARK    1  A    between atoms: C1_1  and  C2_2 
REMARK       I    between atoms: C2_2  and  N1_4 
REMARK    2  A    between atoms: N1_4  and  C3_5 
REMARK    3  A    between atoms: N4_8  and  C4_10 
ROOT
ATOM      1  C3  <0> d          -1.137  -2.093   0.002  0.00  0.00     0.767 A 
ATOM      2  N2  <0> d          -0.051  -2.866  -0.019  0.00  0.00     0.065 NA
ATOM      3  N3  <0> d          -0.396  -4.105  -0.016  0.00  0.00    -0.032 NA
ATOM      4  N4  <0> d          -1.682  -4.196  -0.004  0.00  0.00    -0.158 N 
ATOM      5  N5  <0> d          -2.188  -2.885   0.007  0.00  0.00     0.041 NA
ENDROOT
BRANCH   1   6
ATOM      6  N1  <0> d          -1.156  -0.694   0.009  0.00  0.00    -0.153 N 
ATOM      7  C2  <0> d           0.002  -0.004   0.002  0.00  0.00     0.232 C 
ATOM      8  O1  <0> d           1.060  -0.596  -0.011  0.00  0.00    -0.273 OA
ATOM      9  H4  <0> d          -2.002  -0.220   0.020  0.00  0.00     0.187 HD
BRANCH   7  10
ATOM     10  C1  <0> d          -0.018   1.503   0.010  0.00  0.00    -0.002 C 
ATOM     11  H1  <0> d           1.004   1.880   0.003  0.00  0.00     0.040 H 
ATOM     12  H2  <0> d          -0.545   1.864  -0.873  0.00  0.00     0.040 H 
ATOM     13  H3  <0> d          -0.529   1.854   0.907  0.00  0.00     0.040 H 
ENDBRANCH   7  10
ENDBRANCH   1   6
BRANCH   4  14
ATOM     14  C4  <0> d          -2.468  -5.433  -0.004  0.00  0.00     0.022 C 
ATOM     15  H5  <0> d          -2.672  -5.734  -1.032  0.00  0.00     0.062 H 
ATOM     16  H6  <0> d          -1.907  -6.219   0.500  0.00  0.00     0.062 H 
ATOM     17  H7  <0> d          -3.409  -5.265   0.519  0.00  0.00     0.062 H 
ENDBRANCH   4  14
TORSDOF 3
