REMARK  1 active torsions:
REMARK  status: ('A' for Active; 'I' for Inactive)
REMARK    1  A    between atoms: C1_1  and  C2_2 
ROOT
ATOM      1  C2  <0> d           1.163   3.432   0.009  0.00  0.00    -0.038 A 
ATOM      2  C3  <0> d           1.175   2.053   0.002  0.00  0.00    -0.035 A 
ATOM      3  C4  <0> d          -0.016   1.347   0.009  0.00  0.00     0.155 A 
ATOM      4  C5  <0> d          -1.230   2.022   0.019  0.00  0.00     0.156 A 
ATOM      5  C6  <0> d          -1.253   3.402   0.031  0.00  0.00    -0.022 A 
ATOM      6  C7  <0> d          -0.053   4.118   0.024  0.00  0.00     0.053 A 
ATOM      7  C8  <0> d          -0.071   5.550   0.032  0.00  0.00     0.100 C 
ATOM      8  N1  <0> d          -0.085   6.686   0.038  0.00  0.00    -0.191 NA
ATOM      9  F1  <0> d          -2.388   1.328   0.021  0.00  0.00    -0.203 F 
ATOM     10  F2  <0> d           0.002  -0.004   0.002  0.00  0.00    -0.203 F 
ATOM     11  H4  <0> d           2.116   1.523  -0.009  0.00  0.00     0.089 H 
ATOM     12  H5  <0> d          -2.196   3.928   0.043  0.00  0.00     0.090 H 
ENDROOT
BRANCH   1  13
ATOM     13  C1  <0> d           2.461   4.198   0.001  0.00  0.00    -0.050 C 
ATOM     14  H1  <0> d           3.304   3.491  -0.010  0.00  0.00     0.033 H 
ATOM     15  H2  <0> d           2.522   4.826   0.902  0.00  0.00     0.033 H 
ATOM     16  H3  <0> d           2.505   4.836  -0.894  0.00  0.00     0.033 H 
ENDBRANCH   1  13
TORSDOF 1
