REMARK  6 active torsions:
REMARK  status: ('A' for Active; 'I' for Inactive)
REMARK    1  A    between atoms: C1_1  and  C2_2 
REMARK    2  A    between atoms: C2_2  and  C3_3 
REMARK    3  A    between atoms: C3_3  and  C4_4 
REMARK    4  A    between atoms: C4_4  and  C5_6 
REMARK    5  A    between atoms: C4_4  and  N1_7 
REMARK    6  A    between atoms: C6_8  and  N3_12 
ROOT
ATOM      1  C4  <0> d           1.713   3.179   0.002  0.00  0.00     0.033 C 
ATOM      2  H1  <0> d           0.845   3.837   0.013  0.00  0.00     0.075 H 
ENDROOT
BRANCH   1   3
ATOM      3  C3  <0> d           2.567   3.439   1.245  0.00  0.00    -0.045 C 
ATOM      4  H7  <0> d           2.005   3.161   2.136  0.00  0.00     0.036 H 
ATOM      5  H8  <0> d           3.479   2.845   1.190  0.00  0.00     0.036 H 
BRANCH   3   6
ATOM      6  C2  <0> d           2.928   4.924   1.313  0.00  0.00    -0.067 C 
ATOM      7  H5  <0> d           3.490   5.203   0.421  0.00  0.00     0.032 H 
ATOM      8  H6  <0> d           2.016   5.518   1.368  0.00  0.00     0.032 H 
BRANCH   6   9
ATOM      9  C1  <0> d           3.782   5.185   2.555  0.00  0.00    -0.076 C 
ATOM     10  H2  <0> d           4.040   6.243   2.604  0.00  0.00     0.027 H 
ATOM     11  H3  <0> d           3.220   4.906   3.447  0.00  0.00     0.027 H 
ATOM     12  H4  <0> d           4.694   4.591   2.500  0.00  0.00     0.027 H 
ENDBRANCH   6   9
ENDBRANCH   3   6
ENDBRANCH   1   3
BRANCH   1  13
ATOM     13  C5  <0> d           2.543   3.451  -1.254  0.00  0.00    -0.055 C 
ATOM     14  H9  <0> d           2.875   4.489  -1.252  0.00  0.00     0.030 H 
ATOM     15  H10 <0> d           3.412   2.792  -1.265  0.00  0.00     0.030 H 
ATOM     16  H11 <0> d           1.935   3.265  -2.139  0.00  0.00     0.030 H 
ENDBRANCH   1  13
BRANCH   1  17
ATOM     17  N1  <0> d           1.267   1.783  -0.001  0.00  0.00    -0.250 N 
ATOM     18  N2  <0> d           2.096   0.654  -0.014  0.00  0.00    -0.183 NA
ATOM     19  C8  <0> d           1.338  -0.413  -0.013  0.00  0.00     0.025 A 
ATOM     20  C7  <0> d           0.002  -0.004   0.002  0.00  0.00    -0.021 A 
ATOM     21  H13 <0> d           1.687  -1.436  -0.022  0.00  0.00     0.117 H 
ATOM     22  C6  <0> d          -0.016   1.357   0.009  0.00  0.00     0.119 A 
ATOM     23  H12 <0> d          -0.862  -0.652   0.007  0.00  0.00     0.091 H 
BRANCH  22  24
ATOM     24  N3  <0> d          -1.151   2.165   0.019  0.00  0.00    -0.384 N 
ATOM     25  H14 <0> d          -2.033   1.762   0.022  0.00  0.00     0.157 HD
ATOM     26  H15 <0> d          -1.058   3.130   0.024  0.00  0.00     0.157 HD
ENDBRANCH  22  24
ENDBRANCH   1  17
TORSDOF 6
