REMARK  3 active torsions:
REMARK  status: ('A' for Active; 'I' for Inactive)
REMARK    1  A    between atoms: C1_1  and  O1_2 
REMARK    2  A    between atoms: O1_2  and  C2_3 
REMARK    3  A    between atoms: C2_3  and  C3_5 
ROOT
ATOM      1  C3  <0> d           1.280   1.975   0.000  0.00  0.00     0.053 C 
ATOM      2  H1  <0> d           1.332   2.656   0.850  0.00  0.00     0.058 H 
ATOM      3  C4  <0> d           2.495   1.018  -0.016  0.00  0.00     0.022 C 
ATOM      4  C5  <0> d           3.502   1.712  -0.907  0.00  0.00     0.218 C 
ATOM      5  O3  <0> d           4.683   1.441  -0.962  0.00  0.00    -0.274 OA
ATOM      6  N1  <0> d           2.898   2.672  -1.627  0.00  0.00    -0.360 N 
ATOM      7  C6  <0> d           1.462   2.737  -1.331  0.00  0.00     0.007 C 
ATOM      8  H5  <0> d           2.896   0.894   0.989  0.00  0.00     0.048 H 
ATOM      9  H6  <0> d           2.213   0.052  -0.436  0.00  0.00     0.048 H 
ATOM     10  H7  <0> d           3.352   3.249  -2.261  0.00  0.00     0.162 HD
ATOM     11  H8  <0> d           0.891   2.253  -2.124  0.00  0.00     0.065 H 
ATOM     12  H9  <0> d           1.146   3.774  -1.218  0.00  0.00     0.065 H 
ENDROOT
BRANCH   1  13
ATOM     13  C2  <0> d          -0.014   1.204   0.009  0.00  0.00     0.264 C 
ATOM     14  O2  <0> d           0.002  -0.004   0.002  0.00  0.00    -0.265 OA
BRANCH  13  15
ATOM     15  O1  <0> d          -1.186   1.859   0.018  0.00  0.00    -0.326 OA
BRANCH  15  16
ATOM     16  C1  <0> d          -2.393   1.052   0.019  0.00  0.00     0.013 C 
ATOM     17  H2  <0> d          -2.413   0.428  -0.874  0.00  0.00     0.067 H 
ATOM     18  H3  <0> d          -2.405   0.418   0.906  0.00  0.00     0.067 H 
ATOM     19  H4  <0> d          -3.266   1.704   0.027  0.00  0.00     0.067 H 
ENDBRANCH  15  16
ENDBRANCH  13  15
ENDBRANCH   1  13
TORSDOF 3
