REMARK  1 active torsions:
REMARK  status: ('A' for Active; 'I' for Inactive)
REMARK    1  A    between atoms: C3_4  and  C5_8 
ROOT
ATOM      1  C1  <0> d           2.049   1.532  -1.236  0.00  0.00     0.039 C 
ATOM      2  C2  <0> d           1.286   2.017   0.001  0.00  0.00     0.040 C 
ATOM      3  O1  <0> d          -0.017   1.427   0.010  0.00  0.00    -0.371 OA
ATOM      4  C3  <0> d           0.002  -0.004   0.002  0.00  0.00     0.142 C 
ATOM      5  H1  <0> d           0.494  -0.315   0.935  0.00  0.00     0.103 H 
ATOM      6  C4  <0> d           0.765  -0.489  -1.234  0.00  0.00     0.053 C 
ATOM      7  O2  <0> d           2.068   0.101  -1.243  0.00  0.00    -0.386 OA
ATOM      8  H2  <0> d           3.080   1.912  -1.206  0.00  0.00     0.077 H 
ATOM      9  H3  <0> d           1.549   1.897  -2.145  0.00  0.00     0.077 H 
ATOM     10  H4  <0> d           1.832   1.721   0.908  0.00  0.00     0.077 H 
ATOM     11  H5  <0> d           1.195   3.113  -0.031  0.00  0.00     0.077 H 
ATOM     12  H6  <0> d           0.856  -1.585  -1.202  0.00  0.00     0.079 H 
ATOM     13  H7  <0> d           0.218  -0.193  -2.142  0.00  0.00     0.079 H 
ENDROOT
BRANCH   4  14
ATOM     14  C5  <0> d          -1.411  -0.527  -0.039  0.00  0.00     0.205 C 
ATOM     15  O3  <0> d          -2.336   0.242  -0.150  0.00  0.00    -0.646 OA
ATOM     16  O4  <0> d          -1.641  -1.846   0.049  0.00  0.00    -0.646 OA
ENDBRANCH   4  14
TORSDOF 1
