REMARK  6 active torsions:
REMARK  status: ('A' for Active; 'I' for Inactive)
REMARK    1  A    between atoms: C1_1  and  C2_2 
REMARK    2  A    between atoms: C2_2  and  O1_3 
REMARK    3  A    between atoms: O1_3  and  C3_4 
REMARK    4  A    between atoms: C3_4  and  C4_6 
REMARK    5  A    between atoms: C3_4  and  N1_7 
REMARK    6  A    between atoms: C8_11  and  C9_12 
ROOT
ATOM      1  C3  <0> d          -0.068   1.127   2.404  0.00  0.00     0.105 C 
ATOM      2  H1  <0> d           0.423   0.166   2.252  0.00  0.00     0.117 H 
ENDROOT
BRANCH   1   3
ATOM      3  O1  <0> d          -0.682   1.547   1.184  0.00  0.00    -0.367 OA
BRANCH   3   4
ATOM      4  C2  <0> d          -0.013   1.086   0.008  0.00  0.00     0.019 C 
ATOM      5  H5  <0> d           0.002  -0.004   0.002  0.00  0.00     0.073 H 
ATOM      6  H6  <0> d           1.010   1.463   0.000  0.00  0.00     0.073 H 
BRANCH   4   7
ATOM      7  C1  <0> d          -0.753   1.593  -1.232  0.00  0.00    -0.056 C 
ATOM      8  H2  <0> d          -0.242   1.241  -2.128  0.00  0.00     0.030 H 
ATOM      9  H3  <0> d          -1.775   1.215  -1.224  0.00  0.00     0.030 H 
ATOM     10  H4  <0> d          -0.767   2.683  -1.226  0.00  0.00     0.030 H 
ENDBRANCH   4   7
ENDBRANCH   3   4
ENDBRANCH   1   3
BRANCH   1  11
ATOM     11  C4  <0> d           0.968   2.166   2.838  0.00  0.00    -0.036 C 
ATOM     12  H7  <0> d           1.436   1.845   3.769  0.00  0.00     0.033 H 
ATOM     13  H8  <0> d           1.729   2.265   2.064  0.00  0.00     0.033 H 
ATOM     14  H9  <0> d           0.477   3.127   2.990  0.00  0.00     0.033 H 
ENDBRANCH   1  11
BRANCH   1  15
ATOM     15  N1  <0> d          -1.091   0.993   3.444  0.00  0.00    -0.334 N 
ATOM     16  C8  <0> d          -1.007   0.188   4.541  0.00  0.00     0.010 A 
ATOM     17  C7  <0> d          -2.136   0.340   5.263  0.00  0.00    -0.060 A 
ATOM     18  C6  <0> d          -2.951   1.265   4.581  0.00  0.00    -0.066 A 
ATOM     19  H12 <0> d          -2.375  -0.160   6.190  0.00  0.00     0.086 H 
ATOM     20  C5  <0> d          -2.286   1.648   3.472  0.00  0.00    -0.018 A 
ATOM     21  H11 <0> d          -3.929   1.605   4.889  0.00  0.00     0.085 H 
ATOM     22  H10 <0> d          -2.639   2.352   2.733  0.00  0.00     0.111 H 
BRANCH  16  23
ATOM     23  C9  <0> d           0.149  -0.713   4.890  0.00  0.00    -0.037 C 
ATOM     24  H13 <0> d           0.865  -0.165   5.503  0.00  0.00     0.035 H 
ATOM     25  H14 <0> d          -0.217  -1.577   5.445  0.00  0.00     0.035 H 
ATOM     26  H15 <0> d           0.637  -1.050   3.975  0.00  0.00     0.035 H 
ENDBRANCH  16  23
ENDBRANCH   1  15
TORSDOF 6
