REMARK  10 active torsions:
REMARK  status: ('A' for Active; 'I' for Inactive)
REMARK    1  A    between atoms: C1_1  and  C2_2 
REMARK    2  A    between atoms: C2_2  and  C3_3 
REMARK    3  A    between atoms: C3_3  and  C4_4 
REMARK    4  A    between atoms: C3_3  and  C6_6 
REMARK    5  A    between atoms: C3_3  and  O2_11 
REMARK    6  A    between atoms: C4_4  and  C5_5 
REMARK    7  A    between atoms: C6_6  and  C7_7 
REMARK    8  A    between atoms: C6_6  and  O1_9 
REMARK    9  A    between atoms: C7_7  and  C8_8 
REMARK   10  A    between atoms: O1_9  and  C9_10 
ROOT
ATOM      1  C3  <0> d           0.742  -0.511   1.242  0.00  0.00     0.103 C 
ENDROOT
BRANCH   1   2
ATOM      2  C2  <0> d           0.002  -0.004   0.002  0.00  0.00    -0.036 C 
ATOM      3  H4  <0> d          -1.020  -0.381   0.010  0.00  0.00     0.037 H 
ATOM      4  H5  <0> d           0.512  -0.356  -0.895  0.00  0.00     0.037 H 
BRANCH   2   5
ATOM      5  C1  <0> d          -0.019   1.526   0.010  0.00  0.00    -0.074 C 
ATOM      6  H1  <0> d           1.004   1.903   0.003  0.00  0.00     0.027 H 
ATOM      7  H2  <0> d          -0.546   1.887  -0.873  0.00  0.00     0.027 H 
ATOM      8  H3  <0> d          -0.529   1.877   0.907  0.00  0.00     0.027 H 
ENDBRANCH   2   5
ENDBRANCH   1   2
BRANCH   1   9
ATOM      9  C4  <0> d           0.872  -2.034   1.171  0.00  0.00    -0.036 C 
ATOM     10  H6  <0> d           1.505  -2.306   0.326  0.00  0.00     0.037 H 
ATOM     11  H7  <0> d           1.319  -2.404   2.094  0.00  0.00     0.037 H 
BRANCH   9  12
ATOM     12  C5  <0> d          -0.514  -2.656   0.991  0.00  0.00    -0.074 C 
ATOM     13  H8  <0> d          -1.147  -2.384   1.836  0.00  0.00     0.027 H 
ATOM     14  H9  <0> d          -0.961  -2.286   0.068  0.00  0.00     0.027 H 
ATOM     15  H10 <0> d          -0.422  -3.741   0.941  0.00  0.00     0.027 H 
ENDBRANCH   9  12
ENDBRANCH   1   9
BRANCH   1  16
ATOM     16  C6  <0> d           2.115   0.108   1.295  0.00  0.00     0.187 C 
BRANCH  16  17
ATOM     17  C7  <0> d           3.177  -0.654   1.277  0.00  0.00    -0.137 C 
BRANCH  17  18
ATOM     18  C8  <0> d           4.239  -1.415   1.259  0.00  0.00    -0.009 C 
ATOM     19  H11 <0> d           4.661  -1.775   2.186  0.00  0.00     0.051 H 
ATOM     20  H12 <0> d           4.694  -1.685   0.318  0.00  0.00     0.051 H 
ENDBRANCH  17  18
ENDBRANCH  16  17
BRANCH  16  21
ATOM     21  O1  <0> d           2.248   1.453   1.362  0.00  0.00    -0.366 OA
BRANCH  21  22
ATOM     22  C9  <0> d           3.579   1.971   1.410  0.00  0.00     0.006 C 
ATOM     23  H13 <0> d           4.089   1.582   2.292  0.00  0.00     0.066 H 
ATOM     24  H14 <0> d           4.120   1.668   0.514  0.00  0.00     0.066 H 
ATOM     25  H15 <0> d           3.543   3.060   1.462  0.00  0.00     0.066 H 
ENDBRANCH  21  22
ENDBRANCH  16  21
ENDBRANCH   1  16
BRANCH   1  26
ATOM     26  O2  <0> d           0.010  -0.149   2.414  0.00  0.00    -0.386 OA
ATOM     27  H16 <0> d           0.422  -0.439   3.240  0.00  0.00     0.210 HD
ENDBRANCH   1  26
TORSDOF 10
