REMARK  5 active torsions:
REMARK  status: ('A' for Active; 'I' for Inactive)
REMARK    1  A    between atoms: C1_1  and  C2_2 
REMARK    2  A    between atoms: C2_2  and  C3_3 
REMARK    3  A    between atoms: C8_9  and  C9_10 
REMARK    4  A    between atoms: C8_9  and  O1_12 
REMARK    5  A    between atoms: C9_10  and  C10_11 
ROOT
ATOM      1  C3  <0> d          -2.880   1.543   2.537  0.00  0.00    -0.025 C 
ATOM      2  H1  <0> d          -2.895   2.633   2.542  0.00  0.00     0.044 H 
ATOM      3  C4  <0> d          -4.316   1.014   2.547  0.00  0.00    -0.059 C 
ATOM      4  C5  <0> d          -4.295  -0.516   2.539  0.00  0.00    -0.065 C 
ATOM      5  C6  <0> d          -3.579  -1.010   1.280  0.00  0.00    -0.062 C 
ATOM      6  C7  <0> d          -2.143  -0.480   1.269  0.00  0.00    -0.036 C 
ATOM      7  C8  <0> d          -2.164   1.050   1.278  0.00  0.00     0.061 C 
ATOM      8  H7  <0> d          -4.826   1.365   3.444  0.00  0.00     0.033 H 
ATOM      9  H8  <0> d          -4.843   1.375   1.664  0.00  0.00     0.033 H 
ATOM     10  H9  <0> d          -3.768  -0.877   3.422  0.00  0.00     0.033 H 
ATOM     11  H10 <0> d          -5.318  -0.894   2.547  0.00  0.00     0.033 H 
ATOM     12  H11 <0> d          -3.564  -2.100   1.274  0.00  0.00     0.033 H 
ATOM     13  H12 <0> d          -4.106  -0.649   0.397  0.00  0.00     0.033 H 
ATOM     14  H13 <0> d          -1.633  -0.832   0.372  0.00  0.00     0.037 H 
ATOM     15  H14 <0> d          -1.616  -0.841   2.152  0.00  0.00     0.037 H 
ENDROOT
BRANCH   7  16
ATOM     16  C9  <0> d          -0.729   1.579   1.267  0.00  0.00    -0.039 C 
ATOM     17  H15 <0> d          -0.202   1.218   2.150  0.00  0.00     0.036 H 
ATOM     18  H16 <0> d          -0.744   2.669   1.273  0.00  0.00     0.036 H 
BRANCH  16  19
ATOM     19  C10 <0> d          -0.013   1.086   0.008  0.00  0.00    -0.074 C 
ATOM     20  H17 <0> d           0.002  -0.004   0.002  0.00  0.00     0.027 H 
ATOM     21  H18 <0> d           1.010   1.463   0.000  0.00  0.00     0.027 H 
ATOM     22  H19 <0> d          -0.540   1.447  -0.875  0.00  0.00     0.027 H 
ENDBRANCH  16  19
ENDBRANCH   7  16
BRANCH   7  23
ATOM     23  O1  <0> d          -2.855   1.523   0.120  0.00  0.00    -0.389 OA
ATOM     24  H20 <0> d          -2.456   1.248  -0.717  0.00  0.00     0.210 HD
ENDBRANCH   7  23
BRANCH   1  25
ATOM     25  C2  <0> d          -2.140   1.036   3.776  0.00  0.00    -0.062 C 
ATOM     26  H5  <0> d          -2.202  -0.051   3.817  0.00  0.00     0.033 H 
ATOM     27  H6  <0> d          -1.095   1.339   3.724  0.00  0.00     0.033 H 
BRANCH  25  28
ATOM     28  C1  <0> d          -2.782   1.631   5.032  0.00  0.00    -0.076 C 
ATOM     29  H2  <0> d          -2.720   2.718   4.991  0.00  0.00     0.027 H 
ATOM     30  H3  <0> d          -3.828   1.328   5.083  0.00  0.00     0.027 H 
ATOM     31  H4  <0> d          -2.255   1.270   5.915  0.00  0.00     0.027 H 
ENDBRANCH  25  28
ENDBRANCH   1  25
TORSDOF 5
