REMARK  2 active torsions:
REMARK  status: ('A' for Active; 'I' for Inactive)
REMARK    1  A    between atoms: C1_1  and  C2_2 
REMARK    2  A    between atoms: C4_8  and  C5_10 
ROOT
ATOM      1  C2  <0> d           2.036   0.604  -0.014  0.00  0.00     0.148 A 
ATOM      2  N1  <0> d           1.223  -0.415  -0.012  0.00  0.00    -0.133 NA
ATOM      3  N2  <0> d           0.002  -0.004   0.002  0.00  0.00    -0.120 NA
ATOM      4  C3  <0> d          -0.015   1.294   0.009  0.00  0.00     0.218 A 
ATOM      5  N3  <0> d           1.278   1.756  -0.001  0.00  0.00    -0.191 N 
ATOM      6  N4  <0> d           1.442   3.135   0.005  0.00  0.00    -0.162 NA
ATOM      7  C4  <0> d           0.421   3.939   0.019  0.00  0.00     0.095 A 
ATOM      8  S1  <0> d          -0.955   2.801   0.032  0.00  0.00    -0.032 SA
ENDROOT
BRANCH   1   9
ATOM      9  C1  <0> d           3.542   0.534  -0.028  0.00  0.00    -0.018 C 
ATOM     10  H1  <0> d           3.895   0.523  -1.059  0.00  0.00     0.038 H 
ATOM     11  H2  <0> d           3.950   1.404   0.487  0.00  0.00     0.038 H 
ATOM     12  H3  <0> d           3.868  -0.374   0.478  0.00  0.00     0.038 H 
ENDBRANCH   1   9
BRANCH   7  13
ATOM     13  C5  <0> d           0.403   5.446   0.028  0.00  0.00    -0.028 C 
ATOM     14  H4  <0> d           0.390   5.815  -0.997  0.00  0.00     0.036 H 
ATOM     15  H5  <0> d          -0.486   5.796   0.552  0.00  0.00     0.036 H 
ATOM     16  H6  <0> d           1.294   5.817   0.536  0.00  0.00     0.036 H 
ENDBRANCH   7  13
TORSDOF 2
