REMARK  1 active torsions:
REMARK  status: ('A' for Active; 'I' for Inactive)
REMARK    1  A    between atoms: C1_1  and  C2_2 
ROOT
ATOM      1  C2  <0> d           0.002  -0.004   0.002  0.00  0.00    -0.038 C 
ATOM      2  H1  <0> d           0.564  -0.357  -0.863  0.00  0.00     0.042 H 
ATOM      3  C3  <0> d           0.673  -0.496   1.284  0.00  0.00    -0.034 C 
ATOM      4  C4  <0> d           2.003   0.185   1.478  0.00  0.00    -0.031 A 
ATOM      5  C5  <0> d           2.944  -0.405   2.305  0.00  0.00    -0.075 A 
ATOM      6  C6  <0> d           4.171   0.196   2.505  0.00  0.00    -0.082 A 
ATOM      7  C7  <0> d           4.468   1.393   1.880  0.00  0.00    -0.081 A 
ATOM      8  C8  <0> d           3.537   1.988   1.053  0.00  0.00    -0.057 A 
ATOM      9  C9  <0> d           2.301   1.384   0.849  0.00  0.00     0.034 A 
ATOM     10  N1  <0> d           1.374   1.998  -0.000  0.00  0.00    -0.389 N 
ATOM     11  C10 <0> d          -0.019   1.530   0.011  0.00  0.00    -0.004 C 
ATOM     12  H5  <0> d           0.029  -0.276   2.135  0.00  0.00     0.040 H 
ATOM     13  H6  <0> d           0.826  -1.573   1.221  0.00  0.00     0.040 H 
ATOM     14  H7  <0> d           2.717  -1.340   2.796  0.00  0.00     0.084 H 
ATOM     15  H8  <0> d           4.900  -0.270   3.151  0.00  0.00     0.083 H 
ATOM     16  H9  <0> d           5.428   1.863   2.038  0.00  0.00     0.083 H 
ATOM     17  H10 <0> d           3.768   2.923   0.564  0.00  0.00     0.086 H 
ATOM     18  H11 <0> d           1.646   2.721  -0.586  0.00  0.00     0.159 HD
ATOM     19  H12 <0> d          -0.538   1.897  -0.875  0.00  0.00     0.064 H 
ATOM     20  H13 <0> d          -0.521   1.887   0.909  0.00  0.00     0.064 H 
ENDROOT
BRANCH   1  21
ATOM     21  C1  <0> d          -1.431  -0.536  -0.063  0.00  0.00    -0.071 C 
ATOM     22  H2  <0> d          -1.912  -0.175  -0.972  0.00  0.00     0.028 H 
ATOM     23  H3  <0> d          -1.414  -1.626  -0.069  0.00  0.00     0.028 H 
ATOM     24  H4  <0> d          -1.988  -0.186   0.806  0.00  0.00     0.028 H 
ENDBRANCH   1  21
TORSDOF 1
