REMARK  0 active torsions:
REMARK  status: ('A' for Active; 'I' for Inactive)
ROOT
ATOM      1  C1  <0> d          -0.018   1.457   0.010  0.00  0.00     0.015 C 
ATOM      2  C2  <0> d           1.414   1.998  -0.001  0.00  0.00     0.035 C 
ATOM      3  O1  <0> d           2.146   1.335  -1.038  0.00  0.00    -0.380 OA
ATOM      4  C3  <0> d           2.372  -0.050  -0.765  0.00  0.00     0.093 C 
ATOM      5  C4  <0> d           1.079  -0.708  -0.367  0.00  0.00     0.241 C 
ATOM      6  O2  <0> d           1.011  -1.918  -0.382  0.00  0.00    -0.271 OA
ATOM      7  N1  <0> d           0.002  -0.004   0.002  0.00  0.00    -0.357 N 
ATOM      8  H1  <0> d          -0.530   1.807   0.906  0.00  0.00     0.067 H 
ATOM      9  H2  <0> d          -0.547   1.816  -0.872  0.00  0.00     0.067 H 
ATOM     10  H3  <0> d           1.398   3.071  -0.192  0.00  0.00     0.076 H 
ATOM     11  H4  <0> d           1.886   1.803   0.962  0.00  0.00     0.076 H 
ATOM     12  H5  <0> d           2.765  -0.536  -1.658  0.00  0.00     0.089 H 
ATOM     13  H6  <0> d           3.092  -0.147   0.046  0.00  0.00     0.089 H 
ATOM     14  H7  <0> d          -0.796  -0.483   0.275  0.00  0.00     0.162 HD
ENDROOT
TORSDOF 0
