REMARK  5 active torsions:
REMARK  status: ('A' for Active; 'I' for Inactive)
REMARK    1  A    between atoms: C1_1  and  C2_2 
REMARK    2  A    between atoms: C2_2  and  C3_3 
REMARK    3  A    between atoms: C3_3  and  C4_5 
REMARK    4  A    between atoms: C3_3  and  O2_12 
REMARK    5  A    between atoms: C4_5  and  N1_6 
ROOT
ATOM      1  N1  <0> d          -0.908   1.392   3.629  0.00  0.00     0.095 N 
ATOM      2  C5  <0> d          -0.903   2.855   3.774  0.00  0.00     0.133 C 
ATOM      3  C6  <0> d          -1.839   3.253   4.917  0.00  0.00     0.044 C 
ATOM      4  O1  <0> d          -1.429   2.589   6.116  0.00  0.00    -0.388 OA
ATOM      5  C7  <0> d          -1.423   1.163   6.011  0.00  0.00     0.044 C 
ATOM      6  C8  <0> d          -0.483   0.744   4.878  0.00  0.00     0.133 C 
ATOM      7  H9  <0> d           0.118   3.198   3.997  0.00  0.00     0.083 H 
ATOM      8  H10 <0> d          -1.248   3.317   2.837  0.00  0.00     0.083 H 
ATOM      9  H11 <0> d          -1.795   4.342   5.066  0.00  0.00     0.077 H 
ATOM     10  H12 <0> d          -2.869   2.959   4.667  0.00  0.00     0.077 H 
ATOM     11  H13 <0> d          -1.076   0.727   6.959  0.00  0.00     0.077 H 
ATOM     12  H14 <0> d          -2.442   0.807   5.795  0.00  0.00     0.077 H 
ATOM     13  H15 <0> d          -0.518  -0.348   4.755  0.00  0.00     0.083 H 
ATOM     14  H16 <0> d           0.545   1.052   5.120  0.00  0.00     0.083 H 
ENDROOT
BRANCH   1  15
ATOM     15  C4  <0> d          -0.064   0.971   2.503  0.00  0.00     0.137 C 
ATOM     16  H7  <0> d           0.992   0.983   2.812  0.00  0.00     0.083 H 
ATOM     17  H8  <0> d          -0.206   1.663   1.660  0.00  0.00     0.083 H 
BRANCH  15  18
ATOM     18  C3  <0> d          -0.454  -0.444   2.074  0.00  0.00     0.061 C 
ATOM     19  H1  <0> d          -0.389  -1.149   2.917  0.00  0.00     0.085 H 
BRANCH  18  20
ATOM     20  C2  <0> d           0.434  -0.888   0.910  0.00  0.00    -0.043 C 
ATOM     21  H5  <0> d           1.491  -0.793   1.199  0.00  0.00     0.036 H 
ATOM     22  H6  <0> d           0.235  -0.253   0.034  0.00  0.00     0.036 H 
BRANCH  20  23
ATOM     23  C1  <0> d           0.129  -2.347   0.563  0.00  0.00    -0.074 C 
ATOM     24  H2  <0> d           0.768  -2.666  -0.274  0.00  0.00     0.027 H 
ATOM     25  H3  <0> d          -0.928  -2.442   0.275  0.00  0.00     0.027 H 
ATOM     26  H4  <0> d           0.329  -2.981   1.439  0.00  0.00     0.027 H 
ENDBRANCH  20  23
ENDBRANCH  18  20
BRANCH  18  27
ATOM     27  O2  <0> d          -1.822  -0.457   1.661  0.00  0.00    -0.394 OA
ATOM     28  H17 <0> d          -2.613  -0.166   2.368  0.00  0.00     0.210 HD
ENDBRANCH  18  27
ENDBRANCH  15  18
ENDBRANCH   1  15
TORSDOF 5
