REMARK  3 active torsions:
REMARK  status: ('A' for Active; 'I' for Inactive)
REMARK    1  A    between atoms: C1_1  and  C2_2 
REMARK    2  A    between atoms: N2_5  and  C5_7 
REMARK    3  A    between atoms: C5_7  and  C6_8 
REMARK       I    between atoms: C6_8  and  N3_10 
ROOT
ATOM      1  C2  <0> d           0.002  -0.004   0.002  0.00  0.00    -0.026 A 
ATOM      2  C3  <0> d           0.009  -0.821  -1.133  0.00  0.00     0.029 A 
ATOM      3  N1  <0> d           0.028  -2.068  -0.740  0.00  0.00    -0.184 NA
ATOM      4  N2  <0> d           0.034  -2.085   0.661  0.00  0.00    -0.272 N 
ATOM      5  C4  <0> d           0.023  -0.806   1.092  0.00  0.00     0.006 A 
ATOM      6  H4  <0> d          -0.001  -0.480  -2.158  0.00  0.00     0.118 H 
ATOM      7  H5  <0> d           0.028  -0.481   2.122  0.00  0.00     0.115 H 
ENDROOT
BRANCH   4   8
ATOM      8  C5  <0> d           0.054  -3.280   1.509  0.00  0.00     0.089 C 
ATOM      9  H6  <0> d           0.993  -3.814   1.361  0.00  0.00     0.082 H 
ATOM     10  H7  <0> d          -0.036  -2.985   2.554  0.00  0.00     0.082 H 
BRANCH   8  11
ATOM     11  C6  <0> d          -1.099  -4.177   1.139  0.00  0.00     0.235 C 
ATOM     12  O1  <0> d          -1.862  -3.851   0.255  0.00  0.00    -0.272 OA
ATOM     13  N3  <0> d          -1.281  -5.342   1.792  0.00  0.00    -0.369 N 
ATOM     14  H8  <0> d          -0.671  -5.603   2.499  0.00  0.00     0.159 HD
ATOM     15  H9  <0> d          -2.023  -5.920   1.554  0.00  0.00     0.159 HD
ENDBRANCH   8  11
ENDBRANCH   4   8
BRANCH   1  16
ATOM     16  C1  <0> d          -0.018   1.503   0.010  0.00  0.00    -0.049 C 
ATOM     17  H1  <0> d           1.004   1.880   0.003  0.00  0.00     0.033 H 
ATOM     18  H2  <0> d          -0.545   1.864  -0.873  0.00  0.00     0.033 H 
ATOM     19  H3  <0> d          -0.529   1.854   0.907  0.00  0.00     0.033 H 
ENDBRANCH   1  16
TORSDOF 3
