REMARK  3 active torsions:
REMARK  status: ('A' for Active; 'I' for Inactive)
REMARK    1  A    between atoms: C1_1  and  C2_2 
REMARK    2  A    between atoms: C2_2  and  C3_3 
REMARK    3  A    between atoms: C5_6  and  N3_9 
ROOT
ATOM      1  C3  <0> d           0.707  -0.490  -1.238  0.00  0.00     0.051 A 
ATOM      2  C4  <0> d           1.777  -1.358  -1.127  0.00  0.00     0.028 A 
ATOM      3  N1  <0> d           2.399  -1.787  -2.212  0.00  0.00    -0.240 NA
ATOM      4  C5  <0> d           1.995  -1.383  -3.409  0.00  0.00     0.138 A 
ATOM      5  C6  <0> d           0.916  -0.508  -3.517  0.00  0.00     0.046 A 
ATOM      6  N2  <0> d           0.298  -0.089  -2.429  0.00  0.00    -0.260 NA
ATOM      7  H6  <0> d           2.106  -1.687  -0.152  0.00  0.00     0.118 H 
ATOM      8  H7  <0> d           0.584  -0.176  -4.490  0.00  0.00     0.120 H 
ENDROOT
BRANCH   1   9
ATOM      9  C2  <0> d           0.002  -0.004   0.002  0.00  0.00    -0.027 C 
ATOM     10  H4  <0> d           0.529  -0.365   0.885  0.00  0.00     0.041 H 
ATOM     11  H5  <0> d          -1.020  -0.381   0.010  0.00  0.00     0.041 H 
BRANCH   9  12
ATOM     12  C1  <0> d          -0.019   1.526   0.010  0.00  0.00    -0.071 C 
ATOM     13  H1  <0> d           1.004   1.903   0.003  0.00  0.00     0.028 H 
ATOM     14  H2  <0> d          -0.546   1.887  -0.873  0.00  0.00     0.028 H 
ATOM     15  H3  <0> d          -0.529   1.877   0.907  0.00  0.00     0.028 H 
ENDBRANCH   9  12
ENDBRANCH   1   9
BRANCH   4  16
ATOM     16  N3  <0> d           2.646  -1.830  -4.553  0.00  0.00    -0.383 N 
ATOM     17  H8  <0> d           3.398  -2.439  -4.476  0.00  0.00     0.157 HD
ATOM     18  H9  <0> d           2.350  -1.534  -5.427  0.00  0.00     0.157 HD
ENDBRANCH   4  16
TORSDOF 3
