REMARK  3 active torsions:
REMARK  status: ('A' for Active; 'I' for Inactive)
REMARK    1  A    between atoms: C1_1  and  C2_2 
REMARK    2  A    between atoms: C4_5  and  N2_7 
REMARK       I    between atoms: N2_7  and  C5_8 
REMARK    3  A    between atoms: C5_8  and  C6_10 
ROOT
ATOM      1  C2  <0> d           0.366   4.007   0.020  0.00  0.00    -0.000 A 
ATOM      2  C3  <0> d          -0.894   3.509   0.029  0.00  0.00     0.017 A 
ATOM      3  N1  <0> d          -1.054   2.200   0.018  0.00  0.00    -0.236 NA
ATOM      4  C4  <0> d          -0.017   1.386   0.010  0.00  0.00     0.173 A 
ATOM      5  S1  <0> d           1.319   2.495   0.003  0.00  0.00    -0.056 SA
ATOM      6  H4  <0> d          -1.749   4.170   0.041  0.00  0.00     0.116 H 
ENDROOT
BRANCH   4   7
ATOM      7  N2  <0> d           0.002  -0.004   0.002  0.00  0.00    -0.306 N 
ATOM      8  C5  <0> d          -1.156  -0.694   0.009  0.00  0.00     0.219 C 
ATOM      9  O1  <0> d          -2.214  -0.102   0.023  0.00  0.00    -0.274 OA
ATOM     10  H5  <0> d           0.849  -0.478  -0.009  0.00  0.00     0.171 HD
BRANCH   8  11
ATOM     11  C6  <0> d          -1.135  -2.201   0.001  0.00  0.00    -0.002 C 
ATOM     12  H6  <0> d          -1.121  -2.569   1.027  0.00  0.00     0.040 H 
ATOM     13  H7  <0> d          -2.025  -2.573  -0.506  0.00  0.00     0.040 H 
ATOM     14  H8  <0> d          -0.245  -2.549  -0.523  0.00  0.00     0.040 H 
ENDBRANCH   8  11
ENDBRANCH   4   7
BRANCH   1  15
ATOM     15  C1  <0> d           0.835   5.439   0.023  0.00  0.00    -0.044 C 
ATOM     16  H1  <0> d           1.925   5.465   0.013  0.00  0.00     0.034 H 
ATOM     17  H2  <0> d           0.451   5.949  -0.860  0.00  0.00     0.034 H 
ATOM     18  H3  <0> d           0.469   5.939   0.920  0.00  0.00     0.034 H 
ENDBRANCH   1  15
TORSDOF 3
