REMARK  1 active torsions:
REMARK  status: ('A' for Active; 'I' for Inactive)
REMARK    1  A    between atoms: C1_1  and  C2_2 
ROOT
ATOM      1  C2  <0> d           0.002  -0.004   0.002  0.00  0.00    -0.044 A 
ATOM      2  C3  <0> d          -0.017   1.383   0.010  0.00  0.00    -0.073 A 
ATOM      3  C4  <0> d           1.193   2.059   0.002  0.00  0.00    -0.043 A 
ATOM      4  C5  <0> d           2.371   1.333  -0.013  0.00  0.00     0.125 A 
ATOM      5  N1  <0> d           2.350   0.014  -0.020  0.00  0.00    -0.248 NA
ATOM      6  C6  <0> d           1.217  -0.661  -0.013  0.00  0.00     0.009 A 
ATOM      7 Cl1  <0> d           3.893   2.168  -0.024  0.00  0.00    -0.062 Cl
ATOM      8  H4  <0> d          -0.952   1.923   0.017  0.00  0.00     0.084 H 
ATOM      9  H5  <0> d           1.216   3.139   0.007  0.00  0.00     0.088 H 
ATOM     10  H6  <0> d           1.240  -1.741  -0.019  0.00  0.00     0.115 H 
ENDROOT
BRANCH   1  11
ATOM     11  C1  <0> d          -1.287  -0.784   0.010  0.00  0.00    -0.050 C 
ATOM     12  H1  <0> d          -1.607  -0.967  -1.016  0.00  0.00     0.033 H 
ATOM     13  H2  <0> d          -1.133  -1.737   0.517  0.00  0.00     0.033 H 
ATOM     14  H3  <0> d          -2.054  -0.214   0.534  0.00  0.00     0.033 H 
ENDBRANCH   1  11
TORSDOF 1
