REMARK  3 active torsions:
REMARK  status: ('A' for Active; 'I' for Inactive)
REMARK    1  A    between atoms: C1_1  and  N1_2 
REMARK    2  A    between atoms: N1_2  and  C2_3 
REMARK    3  A    between atoms: C2_3  and  C4_7 
ROOT
ATOM      1  C2  <0> d          -0.016   1.091   2.429  0.00  0.00     0.239 C 
ATOM      2  H1  <0> d           0.408   0.096   2.233  0.00  0.00     0.119 H 
ATOM      3  C3  <0> d           1.077   2.018   2.765  0.00  0.00     0.100 C 
ATOM      4  N2  <0> d           1.921   2.733   3.024  0.00  0.00    -0.195 NA
ENDROOT
BRANCH   1   5
ATOM      5  N1  <0> d          -0.700   1.560   1.217  0.00  0.00     0.101 N 
ATOM      6  H5  <0> d          -0.715   2.659   1.223  0.00  0.00     0.317 HD
BRANCH   5   7
ATOM      7  C1  <0> d          -0.013   1.086   0.008  0.00  0.00     0.095 C 
ATOM      8  H2  <0> d          -0.545   1.450  -0.883  0.00  0.00     0.071 H 
ATOM      9  H3  <0> d           0.002  -0.014   0.002  0.00  0.00     0.071 H 
ATOM     10  H4  <0> d           1.019   1.466   0.000  0.00  0.00     0.071 H 
ENDBRANCH   5   7
ENDBRANCH   1   5
BRANCH   1  11
ATOM     11  C4  <0> d          -0.998   1.038   3.571  0.00  0.00    -0.012 A 
ATOM     12  C9  <0> d          -0.958  -0.012   4.470  0.00  0.00    -0.074 A 
ATOM     13  C8  <0> d          -1.859  -0.060   5.517  0.00  0.00    -0.082 A 
ATOM     14  H10 <0> d          -0.223  -0.794   4.353  0.00  0.00     0.084 H 
ATOM     15  C7  <0> d          -2.799   0.942   5.667  0.00  0.00    -0.083 A 
ATOM     16  H9  <0> d          -1.827  -0.880   6.219  0.00  0.00     0.083 H 
ATOM     17  C6  <0> d          -2.839   1.992   4.769  0.00  0.00    -0.082 A 
ATOM     18  H8  <0> d          -3.502   0.904   6.485  0.00  0.00     0.083 H 
ATOM     19  C5  <0> d          -1.935   2.043   3.724  0.00  0.00    -0.074 A 
ATOM     20  H7  <0> d          -3.574   2.775   4.886  0.00  0.00     0.083 H 
ATOM     21  H6  <0> d          -1.964   2.866   3.025  0.00  0.00     0.084 H 
ENDBRANCH   1  11
TORSDOF 3
