REMARK  2 active torsions:
REMARK  status: ('A' for Active; 'I' for Inactive)
REMARK    1  A    between atoms: N1_5  and  C5_10 
REMARK    2  A    between atoms: C5_10  and  O3_11 
ROOT
ATOM      1  C1  <0> d           0.002  -0.004   0.002  0.00  0.00    -0.011 A 
ATOM      2  C2  <0> d           1.186  -0.642  -0.013  0.00  0.00    -0.011 A 
ATOM      3  C3  <0> d           2.431   0.155  -0.020  0.00  0.00     0.264 A 
ATOM      4  O1  <0> d           3.510  -0.404  -0.034  0.00  0.00    -0.267 OA
ATOM      5  N1  <0> d           2.370   1.500  -0.013  0.00  0.00    -0.231 N 
ATOM      6  N2  <0> d           1.139   2.163   0.003  0.00  0.00    -0.259 N 
ATOM      7  H1  <0> d           1.117   3.162   0.008  0.00  0.00     0.190 HD
ATOM      8  C4  <0> d          -0.018   1.474   0.010  0.00  0.00     0.260 A 
ATOM      9  O2  <0> d          -1.079   2.067   0.018  0.00  0.00    -0.267 OA
ATOM     10  H2  <0> d          -0.921  -0.564   0.007  0.00  0.00     0.092 H 
ATOM     11  H3  <0> d           1.227  -1.721  -0.019  0.00  0.00     0.092 H 
ENDROOT
BRANCH   5  12
ATOM     12  C5  <0> d           3.610   2.279  -0.020  0.00  0.00     0.098 C 
ATOM     13  H4  <0> d           3.449   3.223   0.501  0.00  0.00     0.109 H 
ATOM     14  H5  <0> d           4.396   1.716   0.484  0.00  0.00     0.109 H 
BRANCH  12  15
ATOM     15  O3  <0> d           4.001   2.540  -1.369  0.00  0.00    -0.380 OA
ATOM     16  H6  <0> d           4.816   3.054  -1.450  0.00  0.00     0.211 HD
ENDBRANCH  12  15
ENDBRANCH   5  12
TORSDOF 2
