REMARK  0 active torsions:
REMARK  status: ('A' for Active; 'I' for Inactive)
ROOT
ATOM      1  C1  <0> d          -0.016   1.358   0.009  0.00  0.00    -0.010 A 
ATOM      2  C2  <0> d           0.002  -0.004   0.002  0.00  0.00     0.109 A 
ATOM      3  C3  <0> d           1.252  -0.652  -0.012  0.00  0.00     0.109 A 
ATOM      4  C4  <0> d           2.375   0.118  -0.019  0.00  0.00    -0.010 A 
ATOM      5  S1  <0> d           1.716   1.773  -0.005  0.00  0.00    -0.108 SA
ATOM      6  O1  <0> d           1.342  -2.034  -0.015  0.00  0.00    -0.346 OA
ATOM      7  C5  <0> d           0.142  -2.714   0.372  0.00  0.00     0.046 C 
ATOM      8  C6  <0> d          -1.044  -2.100  -0.378  0.00  0.00     0.046 C 
ATOM      9  O2  <0> d          -1.180  -0.728   0.006  0.00  0.00    -0.346 OA
ATOM     10  H1  <0> d          -0.869   2.021   0.017  0.00  0.00     0.099 H 
ATOM     11  H2  <0> d           3.408  -0.196  -0.031  0.00  0.00     0.099 H 
ATOM     12  H3  <0> d           0.225  -3.772   0.121  0.00  0.00     0.078 H 
ATOM     13  H4  <0> d          -0.008  -2.605   1.446  0.00  0.00     0.078 H 
ATOM     14  H5  <0> d          -0.868  -2.163  -1.452  0.00  0.00     0.078 H 
ATOM     15  H6  <0> d          -1.955  -2.643  -0.126  0.00  0.00     0.078 H 
ENDROOT
TORSDOF 0
