REMARK  4 active torsions:
REMARK  status: ('A' for Active; 'I' for Inactive)
REMARK    1  A    between atoms: C1_1  and  O1_2 
REMARK    2  A    between atoms: O1_2  and  C2_3 
REMARK    3  A    between atoms: C2_3  and  C3_5 
REMARK    4  A    between atoms: C5_8  and  O3_13 
ROOT
ATOM      1  C3  <0> d           0.657  -2.104  -1.120  0.00  0.00     0.217 C 
ATOM      2  H1  <0> d           0.861  -2.510  -0.129  0.00  0.00     0.104 H 
ATOM      3  C4  <0> d          -0.683  -2.641  -1.626  0.00  0.00    -0.003 C 
ATOM      4  C5  <0> d          -0.611  -4.168  -1.722  0.00  0.00     0.039 C 
ATOM      5  H2  <0> d          -0.439  -4.587  -0.731  0.00  0.00     0.083 H 
ATOM      6  C6  <0> d           0.542  -4.560  -2.650  0.00  0.00    -0.016 C 
ATOM      7  C7  <0> d           1.846  -3.966  -2.114  0.00  0.00     0.115 C 
ATOM      8  N1  <0> d           1.727  -2.505  -2.042  0.00  0.00     0.097 N 
ATOM      9  H6  <0> d          -1.474  -2.357  -0.933  0.00  0.00     0.040 H 
ATOM     10  H7  <0> d          -0.893  -2.224  -2.611  0.00  0.00     0.040 H 
ATOM     11  H8  <0> d           0.625  -5.646  -2.689  0.00  0.00     0.039 H 
ATOM     12  H9  <0> d           0.350  -4.173  -3.651  0.00  0.00     0.039 H 
ATOM     13  H10 <0> d           2.044  -4.364  -1.119  0.00  0.00     0.079 H 
ATOM     14  H11 <0> d           2.667  -4.232  -2.781  0.00  0.00     0.079 H 
ATOM     15  H12 <0> d           1.582  -2.108  -2.959  0.00  0.00     0.317 HD
ENDROOT
BRANCH   1  16
ATOM     16  C2  <0> d           0.598  -0.600  -1.043  0.00  0.00     0.292 C 
ATOM     17  O2  <0> d           1.088   0.070  -1.921  0.00  0.00    -0.263 OA
BRANCH  16  18
ATOM     18  O1  <0> d           0.002  -0.004   0.002  0.00  0.00    -0.325 OA
BRANCH  18  19
ATOM     19  C1  <0> d          -0.017   1.425   0.010  0.00  0.00     0.013 C 
ATOM     20  H3  <0> d           1.005   1.802   0.002  0.00  0.00     0.067 H 
ATOM     21  H4  <0> d          -0.544   1.786  -0.873  0.00  0.00     0.067 H 
ATOM     22  H5  <0> d          -0.527   1.776   0.907  0.00  0.00     0.067 H 
ENDBRANCH  18  19
ENDBRANCH  16  18
ENDBRANCH   1  16
BRANCH   4  23
ATOM     23  O3  <0> d          -1.841  -4.672  -2.247  0.00  0.00    -0.395 OA
ATOM     24  H13 <0> d          -1.866  -5.634  -2.335  0.00  0.00     0.210 HD
ENDBRANCH   4  23
TORSDOF 4
