REMARK  0 active torsions:
REMARK  status: ('A' for Active; 'I' for Inactive)
ROOT
ATOM      1  C1  <0> d          -1.237   3.400   0.031  0.00  0.00    -0.040 A 
ATOM      2  C2  <0> d          -1.230   2.015   0.019  0.00  0.00    -0.024 A 
ATOM      3  C3  <0> d          -0.016   1.347   0.009  0.00  0.00     0.209 A 
ATOM      4  N1  <0> d           1.123   2.015   0.002  0.00  0.00    -0.230 NA
ATOM      5  C4  <0> d           1.153   3.334   0.009  0.00  0.00     0.042 A 
ATOM      6  C5  <0> d          -0.020   4.068   0.023  0.00  0.00     0.134 A 
ATOM      7  F1  <0> d           0.020   5.419   0.030  0.00  0.00    -0.205 F 
ATOM      8  F2  <0> d           0.002  -0.004   0.002  0.00  0.00    -0.184 F 
ATOM      9  H1  <0> d          -2.168   3.948   0.042  0.00  0.00     0.088 H 
ATOM     10  H2  <0> d          -2.158   1.463   0.020  0.00  0.00     0.090 H 
ATOM     11  H3  <0> d           2.104   3.846   0.003  0.00  0.00     0.119 H 
ENDROOT
TORSDOF 0
