REMARK  4 active torsions:
REMARK  status: ('A' for Active; 'I' for Inactive)
REMARK    1  A    between atoms: C1_1  and  C2_2 
REMARK    2  A    between atoms: C2_2  and  C3_4 
REMARK    3  A    between atoms: C2_2  and  N2_8 
REMARK       I    between atoms: C3_4  and  N1_6 
REMARK    4  A    between atoms: N1_6  and  C4_7 
ROOT
ATOM      1  C2  <0> d           0.002  -0.004   0.002  0.00  0.00     0.090 C 
ATOM      2  H1  <0> d           0.512  -0.356  -0.895  0.00  0.00     0.087 H 
ENDROOT
BRANCH   1   3
ATOM      3  C1  <0> d          -0.019   1.526   0.010  0.00  0.00    -0.049 C 
ATOM      4  H2  <0> d           1.004   1.903   0.003  0.00  0.00     0.030 H 
ATOM      5  H3  <0> d          -0.546   1.887  -0.873  0.00  0.00     0.030 H 
ATOM      6  H4  <0> d          -0.529   1.877   0.907  0.00  0.00     0.030 H 
ENDBRANCH   1   3
BRANCH   1   7
ATOM      7  C3  <0> d          -1.412  -0.526   0.013  0.00  0.00     0.240 C 
ATOM      8  O1  <0> d          -1.790  -1.233   0.922  0.00  0.00    -0.271 OA
ATOM      9  N1  <0> d          -2.256  -0.206  -0.988  0.00  0.00    -0.364 N 
ATOM     10  H5  <0> d          -1.953   0.360  -1.716  0.00  0.00     0.161 HD
BRANCH   9  11
ATOM     11  C4  <0> d          -3.630  -0.713  -0.978  0.00  0.00    -0.018 C 
ATOM     12  H6  <0> d          -4.157  -0.352  -1.861  0.00  0.00     0.056 H 
ATOM     13  H7  <0> d          -3.615  -1.803  -0.984  0.00  0.00     0.056 H 
ATOM     14  H8  <0> d          -4.140  -0.362  -0.081  0.00  0.00     0.056 H 
ENDBRANCH   9  11
ENDBRANCH   1   7
BRANCH   1  15
ATOM     15  N2  <0> d           0.711  -0.489   1.189  0.00  0.00    -0.337 N 
ATOM     16  C7  <0> d           0.373  -0.255   2.475  0.00  0.00     0.066 A 
ATOM     17  N3  <0> d           1.238  -0.852   3.250  0.00  0.00    -0.255 NA
ATOM     18  H11 <0> d          -0.474   0.327   2.808  0.00  0.00     0.143 H 
ATOM     19  C6  <0> d           2.154  -1.474   2.494  0.00  0.00     0.018 A 
ATOM     20  C5  <0> d           1.842  -1.260   1.201  0.00  0.00    -0.002 A 
ATOM     21  H10 <0> d           2.994  -2.047   2.857  0.00  0.00     0.117 H 
ATOM     22  H9  <0> d           2.381  -1.626   0.340  0.00  0.00     0.113 H 
ENDBRANCH   1  15
TORSDOF 4
