REMARK  2 active torsions:
REMARK  status: ('A' for Active; 'I' for Inactive)
REMARK    1  A    between atoms: C1_1  and  C2_2 
REMARK    2  A    between atoms: C7_8  and  O1_10 
ROOT
ATOM      1  C2  <0> d          -0.729   1.579   1.267  0.00  0.00    -0.033 C 
ATOM      2  H1  <0> d          -1.751   1.202   1.275  0.00  0.00     0.043 H 
ATOM      3  C3  <0> d          -0.013   1.086   0.008  0.00  0.00    -0.060 C 
ATOM      4  C4  <0> d          -0.753   1.593  -1.232  0.00  0.00    -0.065 C 
ATOM      5  C5  <0> d          -0.773   3.123  -1.223  0.00  0.00    -0.063 C 
ATOM      6  C6  <0> d          -1.490   3.616   0.036  0.00  0.00    -0.041 C 
ATOM      7  C7  <0> d          -0.750   3.109   1.275  0.00  0.00     0.038 C 
ATOM      8  H2  <0> d           0.273   3.486   1.268  0.00  0.00     0.083 H 
ATOM      9  H6  <0> d           0.002  -0.004   0.002  0.00  0.00     0.033 H 
ATOM     10  H7  <0> d           1.010   1.463   0.000  0.00  0.00     0.033 H 
ATOM     11  H8  <0> d          -0.242   1.241  -2.128  0.00  0.00     0.033 H 
ATOM     12  H9  <0> d          -1.775   1.215  -1.224  0.00  0.00     0.033 H 
ATOM     13  H10 <0> d           0.249   3.500  -1.231  0.00  0.00     0.033 H 
ATOM     14  H11 <0> d          -1.301   3.484  -2.106  0.00  0.00     0.033 H 
ATOM     15  H12 <0> d          -1.504   4.706   0.042  0.00  0.00     0.036 H 
ATOM     16  H13 <0> d          -2.512   3.239   0.043  0.00  0.00     0.036 H 
ENDROOT
BRANCH   1  17
ATOM     17  C1  <0> d           0.011   1.072   2.506  0.00  0.00    -0.071 C 
ATOM     18  H3  <0> d           1.034   1.450   2.499  0.00  0.00     0.028 H 
ATOM     19  H4  <0> d          -0.499   1.424   3.403  0.00  0.00     0.028 H 
ATOM     20  H5  <0> d           0.026  -0.018   2.500  0.00  0.00     0.028 H 
ENDBRANCH   1  17
BRANCH   7  21
ATOM     21  O1  <0> d          -1.419   3.570   2.451  0.00  0.00    -0.395 OA
ATOM     22  H14 <0> d          -1.469   4.533   2.523  0.00  0.00     0.210 HD
ENDBRANCH   7  21
TORSDOF 2
