REMARK  4 active torsions:
REMARK  status: ('A' for Active; 'I' for Inactive)
REMARK    1  A    between atoms: C1_1  and  C2_2 
REMARK    2  A    between atoms: C2_2  and  C3_3 
REMARK    3  A    between atoms: C2_2  and  C5_5 
REMARK    4  A    between atoms: C2_2  and  O1_11 
ROOT
ATOM      1  C3  <0> d          -1.760   2.373  -1.365  0.00  0.00    -0.074 C 
ATOM      2  C4  <0> d          -2.105   2.573  -2.469  0.00  0.00    -0.151 C 
ATOM      3  H4  <0> d          -2.414   2.751  -3.456  0.00  0.00     0.166 H 
ENDROOT
BRANCH   1   4
ATOM      4  C2  <0> d          -1.326   2.123   0.020  0.00  0.00     0.145 C 
BRANCH   4   5
ATOM      5  C1  <0> d          -2.384   1.285   0.742  0.00  0.00    -0.033 C 
ATOM      6  H1  <0> d          -2.063   1.100   1.767  0.00  0.00     0.033 H 
ATOM      7  H2  <0> d          -3.332   1.824   0.749  0.00  0.00     0.033 H 
ATOM      8  H3  <0> d          -2.511   0.335   0.223  0.00  0.00     0.033 H 
ENDBRANCH   4   5
BRANCH   4   9
ATOM      9  C5  <0> d          -0.017   1.378   0.010  0.00  0.00     0.005 A 
ATOM     10  C9  <0> d           0.002  -0.004   0.002  0.00  0.00     0.012 A 
ATOM     11  N1  <0> d           1.144  -0.663  -0.012  0.00  0.00    -0.272 NA
ATOM     12  H8  <0> d          -0.929  -0.550   0.008  0.00  0.00     0.115 H 
ATOM     13  C8  <0> d           2.305  -0.038  -0.020  0.00  0.00     0.002 A 
ATOM     14  C7  <0> d           2.365   1.343  -0.013  0.00  0.00    -0.065 A 
ATOM     15  H7  <0> d           3.220  -0.612  -0.031  0.00  0.00     0.114 H 
ATOM     16  C6  <0> d           1.185   2.070   0.002  0.00  0.00    -0.070 A 
ATOM     17  H6  <0> d           3.319   1.849  -0.020  0.00  0.00     0.085 H 
ATOM     18  H5  <0> d           1.201   3.150   0.007  0.00  0.00     0.084 H 
ENDBRANCH   4   9
BRANCH   4  19
ATOM     19  O1  <0> d          -1.160   3.369   0.700  0.00  0.00    -0.373 OA
ATOM     20  H9  <0> d          -0.503   3.952   0.296  0.00  0.00     0.212 HD
ENDBRANCH   4  19
ENDBRANCH   1   4
TORSDOF 4
