REMARK  0 active torsions:
REMARK  status: ('A' for Active; 'I' for Inactive)
ROOT
ATOM      1  C1  <0> d          -0.013   1.076   0.008  0.00  0.00    -0.063 A 
ATOM      2  C2  <0> d           1.176   1.779   0.000  0.00  0.00    -0.046 A 
ATOM      3  C3  <0> d           1.144   3.183   0.008  0.00  0.00     0.116 A 
ATOM      4  C4  <0> d          -0.133   3.766   0.024  0.00  0.00     0.136 A 
ATOM      5  N1  <0> d          -1.241   3.069   0.030  0.00  0.00    -0.251 NA
ATOM      6  C5  <0> d          -1.220   1.746   0.017  0.00  0.00     0.004 A 
ATOM      7  S1  <0> d           0.235   5.506   0.030  0.00  0.00     0.002 SA
ATOM      8  C6  <0> d           2.016   5.364   0.012  0.00  0.00     0.334 A 
ATOM      9  O1  <0> d           2.854   6.245   0.010  0.00  0.00    -0.251 OA
ATOM     10  O2  <0> d           2.191   4.029   0.003  0.00  0.00    -0.267 OA
ATOM     11  H1  <0> d           0.002  -0.004   0.002  0.00  0.00     0.085 H 
ATOM     12  H2  <0> d           2.120   1.255  -0.011  0.00  0.00     0.087 H 
ATOM     13  H3  <0> d          -2.147   1.192   0.019  0.00  0.00     0.114 H 
ENDROOT
TORSDOF 0
