REMARK  0 active torsions:
REMARK  status: ('A' for Active; 'I' for Inactive)
ROOT
ATOM      1  C1  <0> d          -1.264   3.538   0.036  0.00  0.00    -0.066 A 
ATOM      2  C2  <0> d          -1.246   2.152   0.031  0.00  0.00    -0.073 A 
ATOM      3  C3  <0> d          -0.018   1.502   0.010  0.00  0.00    -0.030 A 
ATOM      4  C4  <0> d           1.141   2.247   0.003  0.00  0.00     0.068 A 
ATOM      5  N1  <0> d           1.082   3.570   0.015  0.00  0.00    -0.263 NA
ATOM      6  C5  <0> d          -0.062   4.221   0.031  0.00  0.00     0.003 A 
ATOM      7  C6  <0> d           2.499   1.594  -0.020  0.00  0.00     0.151 C 
ATOM      8  N2  <0> d           2.400   0.187   0.382  0.00  0.00     0.089 N 
ATOM      9  C7  <0> d           1.383  -0.504  -0.425  0.00  0.00     0.115 C 
ATOM     10  C8  <0> d           0.002  -0.004   0.002  0.00  0.00    -0.014 C 
ATOM     11  H1  <0> d          -2.200   4.074   0.048  0.00  0.00     0.085 H 
ATOM     12  H2  <0> d          -2.167   1.589   0.040  0.00  0.00     0.084 H 
ATOM     13  H3  <0> d          -0.062   5.301   0.040  0.00  0.00     0.114 H 
ATOM     14  H4  <0> d           2.914   1.645  -1.038  0.00  0.00     0.089 H 
ATOM     15  H5  <0> d           3.171   2.118   0.676  0.00  0.00     0.089 H 
ATOM     16  H6  <0> d           3.372  -0.306   0.235  0.00  0.00     0.316 HD
ATOM     17  H7  <0> d           1.549  -0.285  -1.490  0.00  0.00     0.080 H 
ATOM     18  H8  <0> d           1.457  -1.589  -0.259  0.00  0.00     0.080 H 
ATOM     19  H9  <0> d          -0.223  -0.379   1.011  0.00  0.00     0.042 H 
ATOM     20  H10 <0> d          -0.754  -0.377  -0.705  0.00  0.00     0.042 H 
ENDROOT
TORSDOF 0
