REMARK  1 active torsions:
REMARK  status: ('A' for Active; 'I' for Inactive)
REMARK    1  A    between atoms: C3_5  and  C4_6 
ROOT
ATOM      1  C1  <0> d          -0.017   1.411   0.010  0.00  0.00    -0.023 A 
ATOM      2  C2  <0> d           1.282   1.790  -0.001  0.00  0.00     0.033 A 
ATOM      3  N1  <0> d           2.038   0.665  -0.009  0.00  0.00    -0.273 N 
ATOM      4  N2  <0> d           1.266  -0.373  -0.010  0.00  0.00    -0.166 NA
ATOM      5  C3  <0> d           0.002  -0.004   0.002  0.00  0.00     0.155 A 
ATOM      6  C5  <0> d           3.472   1.004  -0.010  0.00  0.00     0.017 C 
ATOM      7  C6  <0> d           3.551   2.482  -0.445  0.00  0.00    -0.043 C 
ATOM      8  C7  <0> d           2.169   3.016  -0.007  0.00  0.00    -0.024 C 
ATOM      9  H1  <0> d          -0.885   2.053   0.025  0.00  0.00     0.090 H 
ATOM     10  H2  <0> d           3.889   0.883   0.990  0.00  0.00     0.067 H 
ATOM     11  H3  <0> d           4.008   0.373  -0.720  0.00  0.00     0.067 H 
ATOM     12  H4  <0> d           4.354   3.001   0.080  0.00  0.00     0.036 H 
ATOM     13  H5  <0> d           3.676   2.565  -1.524  0.00  0.00     0.036 H 
ATOM     14  H6  <0> d           1.799   3.751  -0.722  0.00  0.00     0.042 H 
ATOM     15  H7  <0> d           2.226   3.450   0.992  0.00  0.00     0.042 H 
ENDROOT
BRANCH   5  16
ATOM     16  C4  <0> d          -1.171  -0.896   0.007  0.00  0.00     0.230 C 
ATOM     17  O1  <0> d          -2.299  -0.423   0.019  0.00  0.00    -0.643 OA
ATOM     18  O2  <0> d          -1.017  -2.110  -0.001  0.00  0.00    -0.643 OA
ENDBRANCH   5  16
TORSDOF 1
