REMARK  2 active torsions:
REMARK  status: ('A' for Active; 'I' for Inactive)
REMARK    1  A    between atoms: C1_1  and  C2_2 
REMARK    2  A    between atoms: C5_7  and  C6_10 
ROOT
ATOM      1  C2  <0> d           0.002  -0.004   0.002  0.00  0.00     0.056 C 
ATOM      2  H1  <0> d          -1.020  -0.382   0.010  0.00  0.00     0.086 H 
ATOM      3  C3  <0> d           0.722  -0.499  -1.256  0.00  0.00     0.043 C 
ATOM      4  O1  <0> d           2.092  -0.091  -1.204  0.00  0.00    -0.386 OA
ATOM      5  C4  <0> d           2.788  -0.566  -0.048  0.00  0.00     0.043 C 
ATOM      6  C5  <0> d           2.068  -0.071   1.210  0.00  0.00     0.056 C 
ATOM      7  H2  <0> d           2.123   1.016   1.257  0.00  0.00     0.086 H 
ATOM      8  O2  <0> d           0.697  -0.479   1.159  0.00  0.00    -0.377 OA
ATOM      9  H6  <0> d           0.667  -1.587  -1.302  0.00  0.00     0.078 H 
ATOM     10  H7  <0> d           0.247  -0.071  -2.139  0.00  0.00     0.078 H 
ATOM     11  H8  <0> d           2.802  -1.656  -0.054  0.00  0.00     0.078 H 
ATOM     12  H9  <0> d           3.809  -0.187  -0.056  0.00  0.00     0.078 H 
ENDROOT
BRANCH   1  13
ATOM     13  C1  <0> d          -0.019   1.526   0.010  0.00  0.00    -0.050 C 
ATOM     14  H3  <0> d           1.004   1.903   0.003  0.00  0.00     0.031 H 
ATOM     15  H4  <0> d          -0.546   1.887  -0.873  0.00  0.00     0.031 H 
ATOM     16  H5  <0> d          -0.529   1.877   0.907  0.00  0.00     0.031 H 
ENDBRANCH   1  13
BRANCH   6  17
ATOM     17  C6  <0> d           2.735  -0.670   2.450  0.00  0.00    -0.050 C 
ATOM     18  H10 <0> d           3.780  -0.363   2.485  0.00  0.00     0.031 H 
ATOM     19  H11 <0> d           2.222  -0.317   3.345  0.00  0.00     0.031 H 
ATOM     20  H12 <0> d           2.678  -1.758   2.404  0.00  0.00     0.031 H 
ENDBRANCH   6  17
TORSDOF 2
