REMARK  2 active torsions:
REMARK  status: ('A' for Active; 'I' for Inactive)
REMARK    1  A    between atoms: C6_6  and  C7_7 
REMARK    2  A    between atoms: C7_7  and  O1_8 
ROOT
ATOM      1  C1  <0> d          -0.339   2.798   1.809  0.00  0.00    -0.072 A 
ATOM      2  C2  <0> d          -0.937   3.294   2.921  0.00  0.00    -0.050 A 
ATOM      3  C3  <0> d          -1.963   2.555   3.541  0.00  0.00     0.117 A 
ATOM      4  C4  <0> d          -2.361   1.253   2.949  0.00  0.00     0.118 A 
ATOM      5  C5  <0> d          -1.697   0.807   1.790  0.00  0.00    -0.042 A 
ATOM      6  C6  <0> d          -0.718   1.572   1.248  0.00  0.00    -0.032 A 
ATOM      7  N1  <0> d          -3.312   0.848   3.754  0.00  0.00    -0.103 NA
ATOM      8  O2  <0> d          -3.474   1.677   4.627  0.00  0.00    -0.106 OA
ATOM      9  N2  <0> d          -2.759   2.658   4.577  0.00  0.00    -0.103 NA
ATOM     10  H1  <0> d           0.450   3.367   1.340  0.00  0.00     0.084 H 
ATOM     11  H2  <0> d          -0.626   4.244   3.329  0.00  0.00     0.087 H 
ATOM     12  H3  <0> d          -1.966  -0.137   1.338  0.00  0.00     0.088 H 
ENDROOT
BRANCH   6  13
ATOM     13  C7  <0> d          -0.013   1.086   0.008  0.00  0.00     0.041 C 
ATOM     14  H4  <0> d           0.002  -0.004   0.002  0.00  0.00     0.081 H 
ATOM     15  H5  <0> d           1.010   1.463   0.000  0.00  0.00     0.081 H 
BRANCH  13  16
ATOM     16  O1  <0> d          -0.704   1.559  -1.150  0.00  0.00    -0.396 OA
ATOM     17  H6  <0> d          -0.304   1.284  -1.986  0.00  0.00     0.209 HD
ENDBRANCH  13  16
ENDBRANCH   6  13
TORSDOF 2
