REMARK  0 active torsions:
REMARK  status: ('A' for Active; 'I' for Inactive)
ROOT
ATOM      1  C1  <0> d          -0.017   1.392   0.010  0.00  0.00    -0.049 A 
ATOM      2  C2  <0> d           1.174   2.066   0.002  0.00  0.00     0.003 A 
ATOM      3  N1  <0> d           2.327   1.422  -0.013  0.00  0.00    -0.270 NA
ATOM      4  C3  <0> d           2.402   0.107  -0.021  0.00  0.00     0.037 A 
ATOM      5  C4  <0> d           1.245  -0.661  -0.014  0.00  0.00     0.133 A 
ATOM      6  C5  <0> d           0.002  -0.004   0.002  0.00  0.00     0.061 A 
ATOM      7  C6  <0> d          -1.024  -1.053   0.005  0.00  0.00     0.239 A 
ATOM      8  N2  <0> d          -0.404  -2.199  -0.007  0.00  0.00    -0.098 NA
ATOM      9  O1  <0> d           0.994  -1.984  -0.019  0.00  0.00    -0.209 OA
ATOM     10  O2  <0> d          -2.367  -0.866   0.019  0.00  0.00    -0.167 OA
ATOM     11  H1  <0> d          -0.954   1.929   0.026  0.00  0.00     0.087 H 
ATOM     12  H2  <0> d           1.171   3.146   0.008  0.00  0.00     0.114 H 
ATOM     13  H3  <0> d           3.368  -0.376  -0.033  0.00  0.00     0.119 H 
ENDROOT
TORSDOF 0
