REMARK  2 active torsions:
REMARK  status: ('A' for Active; 'I' for Inactive)
REMARK    1  A    between atoms: C4_5  and  S1_7 
REMARK    2  A    between atoms: S1_7  and  N1_10 
ROOT
ATOM      1  C1  <0> d          -0.019   1.541   0.011  0.00  0.00    -0.026 C 
ATOM      2  C2  <0> d           1.474   1.937  -0.002  0.00  0.00     0.021 C 
ATOM      3  O1  <0> d           2.163   0.795   0.553  0.00  0.00    -0.390 OA
ATOM      4  C3  <0> d           1.506  -0.359  -0.014  0.00  0.00     0.037 C 
ATOM      5  C4  <0> d           0.002  -0.004   0.002  0.00  0.00     0.085 C 
ATOM      6  H1  <0> d          -0.473  -0.397   0.900  0.00  0.00     0.070 H 
ATOM      7  H2  <0> d          -0.505   1.911   0.913  0.00  0.00     0.038 H 
ATOM      8  H3  <0> d          -0.522   1.921  -0.879  0.00  0.00     0.038 H 
ATOM      9  H4  <0> d           1.809   2.123  -1.022  0.00  0.00     0.074 H 
ATOM     10  H5  <0> d           1.639   2.817   0.619  0.00  0.00     0.074 H 
ATOM     11  H6  <0> d           1.845  -0.525  -1.037  0.00  0.00     0.076 H 
ATOM     12  H7  <0> d           1.694  -1.242   0.597  0.00  0.00     0.076 H 
ENDROOT
BRANCH   5  13
ATOM     13  S1  <0> d          -0.818  -0.643  -1.485  0.00  0.00     0.230 S 
ATOM     14  O2  <0> d          -2.210  -0.360  -1.436  0.00  0.00    -0.206 OA
ATOM     15  O3  <0> d          -0.054  -0.324  -2.640  0.00  0.00    -0.206 OA
BRANCH  13  16
ATOM     16  N1  <0> d          -0.717  -2.290  -1.352  0.00  0.00    -0.328 N 
ATOM     17  H8  <0> d          -0.280  -2.689  -0.583  0.00  0.00     0.168 HD
ATOM     18  H9  <0> d          -1.093  -2.857  -2.044  0.00  0.00     0.168 HD
ENDBRANCH  13  16
ENDBRANCH   5  13
TORSDOF 2
