REMARK  2 active torsions:
REMARK  status: ('A' for Active; 'I' for Inactive)
REMARK    1  A    between atoms: C1_1  and  C2_2 
REMARK    2  A    between atoms: C2_2  and  C7_12 
ROOT
ATOM      1  C2  <0> d           0.002  -0.004   0.002  0.00  0.00     0.075 C 
ATOM      2  C3  <0> d           0.736  -0.596  -1.207  0.00  0.00     0.097 C 
ATOM      3  H1  <0> d           0.464  -1.625  -1.443  0.00  0.00     0.073 H 
ATOM      4  C4  <0> d           1.931  -0.454  -0.256  0.00  0.00     0.140 C 
ATOM      5  H2  <0> d           2.420   0.518  -0.318  0.00  0.00     0.109 H 
ATOM      6  O1  <0> d           1.018  -0.564   0.844  0.00  0.00    -0.358 OA
ATOM      7  C5  <0> d           2.882  -1.574  -0.342  0.00  0.00     0.092 C 
ATOM      8  N1  <0> d           3.616  -2.439  -0.408  0.00  0.00    -0.194 NA
ATOM      9  C6  <0> d           0.783   0.284  -2.386  0.00  0.00     0.070 C 
ATOM     10  N2  <0> d           0.819   0.963  -3.296  0.00  0.00    -0.197 NA
ENDROOT
BRANCH   1  11
ATOM     11  C1  <0> d          -0.019   1.526   0.010  0.00  0.00    -0.046 C 
ATOM     12  H3  <0> d           1.004   1.903   0.003  0.00  0.00     0.031 H 
ATOM     13  H4  <0> d          -0.546   1.887  -0.873  0.00  0.00     0.031 H 
ATOM     14  H5  <0> d          -0.529   1.877   0.907  0.00  0.00     0.031 H 
ENDBRANCH   1  11
BRANCH   1  15
ATOM     15  C7  <0> d          -1.382  -0.614   0.233  0.00  0.00    -0.046 C 
ATOM     16  H6  <0> d          -2.010  -0.428  -0.638  0.00  0.00     0.031 H 
ATOM     17  H7  <0> d          -1.284  -1.689   0.388  0.00  0.00     0.031 H 
ATOM     18  H8  <0> d          -1.837  -0.160   1.113  0.00  0.00     0.031 H 
ENDBRANCH   1  15
TORSDOF 2
