REMARK  2 active torsions:
REMARK  status: ('A' for Active; 'I' for Inactive)
REMARK    1  A    between atoms: C1_1  and  O1_2 
REMARK    2  A    between atoms: O1_2  and  C2_3 
ROOT
ATOM      1  C2  <0> d           0.002  -0.004   0.002  0.00  0.00     0.088 A 
ATOM      2  C3  <0> d           1.216  -0.675  -0.013  0.00  0.00    -0.049 A 
ATOM      3  C4  <0> d           2.400   0.036  -0.021  0.00  0.00    -0.080 A 
ATOM      4  C5  <0> d           2.385   1.421  -0.013  0.00  0.00    -0.081 A 
ATOM      5  C6  <0> d           1.188   2.104   0.002  0.00  0.00    -0.060 A 
ATOM      6  C7  <0> d          -0.017   1.397   0.010  0.00  0.00     0.077 A 
ATOM      7  C8  <0> d          -1.264   2.101   0.019  0.00  0.00     0.102 C 
ATOM      8  N1  <0> d          -2.254   2.659   0.027  0.00  0.00    -0.191 NA
ATOM      9  H4  <0> d           1.235  -1.754  -0.019  0.00  0.00     0.087 H 
ATOM     10  H5  <0> d           3.342  -0.491  -0.033  0.00  0.00     0.083 H 
ATOM     11  H6  <0> d           3.316   1.969  -0.019  0.00  0.00     0.083 H 
ATOM     12  H7  <0> d           1.182   3.184   0.007  0.00  0.00     0.086 H 
ENDROOT
BRANCH   1  13
ATOM     13  O1  <0> d          -1.162  -0.702   0.009  0.00  0.00    -0.354 OA
BRANCH  13  14
ATOM     14  C1  <0> d          -1.064  -2.127   0.000  0.00  0.00     0.010 C 
ATOM     15  H1  <0> d          -0.535  -2.450  -0.896  0.00  0.00     0.066 H 
ATOM     16  H2  <0> d          -0.519  -2.459   0.884  0.00  0.00     0.066 H 
ATOM     17  H3  <0> d          -2.065  -2.560   0.007  0.00  0.00     0.066 H 
ENDBRANCH  13  14
ENDBRANCH   1  13
TORSDOF 2
