REMARK  4 active torsions:
REMARK  status: ('A' for Active; 'I' for Inactive)
REMARK    1  A    between atoms: C1_1  and  O1_2 
REMARK    2  A    between atoms: O1_2  and  C2_3 
REMARK    3  A    between atoms: C6_7  and  O2_9 
REMARK    4  A    between atoms: O2_9  and  C8_10 
ROOT
ATOM      1  C2  <0> d          -1.198  -0.636   0.010  0.00  0.00     0.048 C 
ATOM      2  C3  <0> d          -2.285   0.087   0.024  0.00  0.00    -0.071 C 
ATOM      3  C4  <0> d          -3.659  -0.512   0.034  0.00  0.00    -0.030 C 
ATOM      4  C5  <0> d          -3.626  -1.938   0.493  0.00  0.00    -0.071 C 
ATOM      5  C6  <0> d          -2.539  -2.662   0.479  0.00  0.00     0.048 C 
ATOM      6  C7  <0> d          -1.219  -2.135  -0.004  0.00  0.00     0.022 C 
ATOM      7  H4  <0> d          -2.190   1.163   0.029  0.00  0.00     0.081 H 
ATOM      8  H5  <0> d          -4.295   0.065   0.705  0.00  0.00     0.044 H 
ATOM      9  H6  <0> d          -4.074  -0.470  -0.973  0.00  0.00     0.044 H 
ATOM     10  H7  <0> d          -4.541  -2.388   0.851  0.00  0.00     0.081 H 
ATOM     11  H8  <0> d          -1.041  -2.486  -1.021  0.00  0.00     0.053 H 
ATOM     12  H9  <0> d          -0.428  -2.510   0.646  0.00  0.00     0.053 H 
ENDROOT
BRANCH   1  13
ATOM     13  O1  <0> d           0.002  -0.004   0.002  0.00  0.00    -0.360 OA
BRANCH  13  14
ATOM     14  C1  <0> d          -0.017   1.425   0.010  0.00  0.00     0.010 C 
ATOM     15  H1  <0> d           1.005   1.802   0.002  0.00  0.00     0.066 H 
ATOM     16  H2  <0> d          -0.544   1.786  -0.873  0.00  0.00     0.066 H 
ATOM     17  H3  <0> d          -0.527   1.776   0.907  0.00  0.00     0.066 H 
ENDBRANCH  13  14
ENDBRANCH   1  13
BRANCH   5  18
ATOM     18  O2  <0> d          -2.608  -3.945   0.914  0.00  0.00    -0.360 OA
BRANCH  18  19
ATOM     19  C8  <0> d          -3.883  -4.411   1.360  0.00  0.00     0.010 C 
ATOM     20  H10 <0> d          -4.221  -3.800   2.197  0.00  0.00     0.066 H 
ATOM     21  H11 <0> d          -4.601  -4.340   0.544  0.00  0.00     0.066 H 
ATOM     22  H12 <0> d          -3.798  -5.450   1.680  0.00  0.00     0.066 H 
ENDBRANCH  18  19
ENDBRANCH   5  18
TORSDOF 4
