REMARK  1 active torsions:
REMARK  status: ('A' for Active; 'I' for Inactive)
REMARK    1  A    between atoms: C1_1  and  C2_2 
ROOT
ATOM      1  C2  <0> d           0.636   3.540   0.014  0.00  0.00    -0.025 A 
ATOM      2  H1  <0> d           0.973   4.066   0.907  0.00  0.00     0.047 H 
ATOM      3  C3  <0> d           1.196   2.111   0.002  0.00  0.00     0.002 A 
ATOM      4  C4  <0> d          -0.014   1.208   0.009  0.00  0.00     0.160 A 
ATOM      5  O1  <0> d           0.002  -0.004   0.002  0.00  0.00    -0.292 OA
ATOM      6  C5  <0> d          -1.218   2.056   0.018  0.00  0.00     0.016 A 
ATOM      7  C6  <0> d          -0.868   3.407   0.028  0.00  0.00    -0.040 A 
ATOM      8  C7  <0> d          -1.855   4.374   0.042  0.00  0.00    -0.076 A 
ATOM      9  C8  <0> d          -3.189   4.010   0.052  0.00  0.00    -0.082 A 
ATOM     10  C9  <0> d          -3.546   2.674   0.049  0.00  0.00    -0.082 A 
ATOM     11  C10 <0> d          -2.575   1.698   0.035  0.00  0.00    -0.069 A 
ATOM     12  H5  <0> d           1.770   1.971   0.808  0.00  0.00     0.045 H 
ATOM     13  H6  <0> d           1.786   1.944  -0.899  0.00  0.00     0.045 H 
ATOM     14  H7  <0> d          -1.582   5.419   0.045  0.00  0.00     0.084 H 
ATOM     15  H8  <0> d          -3.955   4.772   0.062  0.00  0.00     0.083 H 
ATOM     16  H9  <0> d          -4.590   2.395   0.056  0.00  0.00     0.083 H 
ATOM     17  H10 <0> d          -2.857   0.655   0.032  0.00  0.00     0.085 H 
ENDROOT
BRANCH   1  18
ATOM     18  C1  <0> d           1.086   4.292  -1.240  0.00  0.00    -0.069 C 
ATOM     19  H2  <0> d           0.742   3.758  -2.126  0.00  0.00     0.028 H 
ATOM     20  H3  <0> d           0.662   5.296  -1.234  0.00  0.00     0.028 H 
ATOM     21  H4  <0> d           2.174   4.356  -1.254  0.00  0.00     0.028 H 
ENDBRANCH   1  18
TORSDOF 1
