REMARK  2 active torsions:
REMARK  status: ('A' for Active; 'I' for Inactive)
REMARK    1  A    between atoms: C4_5  and  O2_9 
REMARK    2  A    between atoms: C5_6  and  C6_7 
ROOT
ATOM      1  C1  <0> d          -1.192   3.449   0.032  0.00  0.00    -0.047 A 
ATOM      2  C2  <0> d           0.034   4.083   0.024  0.00  0.00     0.003 A 
ATOM      3  N1  <0> d           1.157   3.392   0.009  0.00  0.00    -0.270 NA
ATOM      4  C3  <0> d           1.170   2.075   0.002  0.00  0.00     0.035 A 
ATOM      5  C4  <0> d          -0.016   1.352   0.009  0.00  0.00     0.100 A 
ATOM      6  C5  <0> d          -1.235   2.050   0.019  0.00  0.00     0.076 A 
ATOM      7  H1  <0> d          -2.106   4.025   0.044  0.00  0.00     0.087 H 
ATOM      8  H2  <0> d           0.074   5.162   0.029  0.00  0.00     0.114 H 
ATOM      9  H3  <0> d           2.114   1.551  -0.009  0.00  0.00     0.119 H 
ENDROOT
BRANCH   6  10
ATOM     10  C6  <0> d          -2.524   1.329   0.021  0.00  0.00     0.212 C 
ATOM     11  O1  <0> d          -2.540   0.115   0.013  0.00  0.00    -0.644 OA
ATOM     12  O3  <0> d          -3.681   2.018   0.030  0.00  0.00    -0.644 OA
ENDBRANCH   6  10
BRANCH   5  13
ATOM     13  O2  <0> d           0.002  -0.004   0.002  0.00  0.00    -0.358 OA
ATOM     14  H4  <0> d           0.016  -0.402   0.883  0.00  0.00     0.217 HD
ENDBRANCH   5  13
TORSDOF 2
