REMARK  3 active torsions:
REMARK  status: ('A' for Active; 'I' for Inactive)
REMARK    1  A    between atoms: C1_1  and  C2_2 
REMARK    2  A    between atoms: C2_2  and  C3_4 
REMARK    3  A    between atoms: C3_4  and  C5_8 
ROOT
ATOM      1  C3  <0> d           1.151   3.592   0.010  0.00  0.00     0.112 C 
ATOM      2  H1  <0> d           0.203   3.913   0.020  0.00  0.00     0.082 H 
ATOM      3  C4  <0> d           1.826   4.098  -1.196  0.00  0.00     0.076 C 
ATOM      4  N1  <0> d           2.348   4.489  -2.126  0.00  0.00    -0.196 NA
ENDROOT
BRANCH   1   5
ATOM      5  C2  <0> d           1.865   4.098   1.236  0.00  0.00     0.145 C 
ATOM      6  O1  <0> d           2.767   3.455   1.718  0.00  0.00    -0.297 OA
BRANCH   5   7
ATOM      7  C1  <0> d           1.455   5.406   1.862  0.00  0.00    -0.019 C 
ATOM      8  H2  <0> d           0.497   5.354   2.145  0.00  0.00     0.037 H 
ATOM      9  H3  <0> d           2.081   5.605   2.732  0.00  0.00     0.037 H 
ATOM     10  H4  <0> d           1.577   6.210   1.136  0.00  0.00     0.037 H 
ENDBRANCH   5   7
ENDBRANCH   1   5
BRANCH   1  11
ATOM     11  C5  <0> d           1.171   2.086   0.002  0.00  0.00    -0.033 A 
ATOM     12  C10 <0> d           2.377   1.411  -0.014  0.00  0.00    -0.075 A 
ATOM     13  C9  <0> d           2.396   0.029  -0.021  0.00  0.00    -0.082 A 
ATOM     14  H9  <0> d           3.305   1.963  -0.019  0.00  0.00     0.084 H 
ATOM     15  C8  <0> d           1.208  -0.679  -0.014  0.00  0.00    -0.083 A 
ATOM     16  H8  <0> d           3.339  -0.499  -0.033  0.00  0.00     0.083 H 
ATOM     17  C7  <0> d           0.002  -0.004   0.002  0.00  0.00    -0.082 A 
ATOM     18  H7  <0> d           1.223  -1.759  -0.020  0.00  0.00     0.083 H 
ATOM     19  C6  <0> d          -0.017   1.378   0.010  0.00  0.00    -0.075 A 
ATOM     20  H6  <0> d          -0.926  -0.557   0.008  0.00  0.00     0.083 H 
ATOM     21  H5  <0> d          -0.959   1.905   0.017  0.00  0.00     0.084 H 
ENDBRANCH   1  11
TORSDOF 3
