REMARK  0 active torsions:
REMARK  status: ('A' for Active; 'I' for Inactive)
ROOT
ATOM      1  C1  <0> d          -1.730   2.261  -1.184  0.00  0.00    -0.040 C 
ATOM      2  C2  <0> d          -1.936   2.360   0.309  0.00  0.00    -0.105 C 
ATOM      3  C3  <0> d          -0.995   1.704   0.975  0.00  0.00    -0.101 C 
ATOM      4  C4  <0> d          -0.013   1.086   0.008  0.00  0.00    -0.021 C 
ATOM      5  H1  <0> d           0.002  -0.004   0.002  0.00  0.00     0.048 H 
ATOM      6  C5  <0> d          -0.271   1.782  -1.355  0.00  0.00     0.014 C 
ATOM      7  H2  <0> d          -0.163   1.357  -2.253  0.00  0.00     0.053 H 
ATOM      8  C6  <0> d           0.748   2.814  -0.919  0.00  0.00     0.132 C 
ATOM      9  O1  <0> d           0.976   3.969  -1.188  0.00  0.00    -0.298 OA
ATOM     10  C7  <0> d           1.361   1.776  -0.001  0.00  0.00    -0.002 C 
ATOM     11  H3  <0> d          -1.865   3.237  -1.651  0.00  0.00     0.040 H 
ATOM     12  H4  <0> d          -2.419   1.536  -1.616  0.00  0.00     0.040 H 
ATOM     13  H5  <0> d          -2.749   2.892   0.779  0.00  0.00     0.076 H 
ATOM     14  H6  <0> d          -0.918   1.633   2.050  0.00  0.00     0.077 H 
ATOM     15  H7  <0> d           1.629   1.998   0.936  0.00  0.00     0.045 H 
ATOM     16  H8  <0> d           2.145   1.183  -0.473  0.00  0.00     0.045 H 
ENDROOT
TORSDOF 0
