REMARK  4 active torsions:
REMARK  status: ('A' for Active; 'I' for Inactive)
REMARK    1  A    between atoms: C1_1  and  C2_2 
REMARK    2  A    between atoms: C2_2  and  O2_4 
REMARK    3  A    between atoms: O2_4  and  S1_5 
REMARK    4  A    between atoms: S1_5  and  C3_6 
ROOT
ATOM      1  C2  <0> d           0.002  -0.004   0.002  0.00  0.00     0.266 C 
ATOM      2  O1  <0> d           0.020  -0.614   1.045  0.00  0.00    -0.265 OA
ENDROOT
BRANCH   1   3
ATOM      3  C1  <0> d          -0.018   1.503   0.010  0.00  0.00     0.004 C 
ATOM      4  H1  <0> d           1.004   1.880   0.003  0.00  0.00     0.041 H 
ATOM      5  H2  <0> d          -0.545   1.864  -0.873  0.00  0.00     0.041 H 
ATOM      6  H3  <0> d          -0.529   1.854   0.907  0.00  0.00     0.041 H 
ENDBRANCH   1   3
BRANCH   1   7
ATOM      7  O2  <0> d           0.000  -0.669  -1.164  0.00  0.00    -0.240 OA
BRANCH   7   8
ATOM      8  S1  <0> d           0.022  -2.183  -1.013  0.00  0.00     0.070 SA
BRANCH   8   9
ATOM      9  C3  <0> d           0.014  -2.795  -2.721  0.00  0.00     0.276 C 
ATOM     10  F1  <0> d           1.244  -2.510  -3.324  0.00  0.00    -0.200 F 
ATOM     11  F2  <0> d          -0.196  -4.178  -2.721  0.00  0.00    -0.200 F 
ATOM     12  H4  <0> d          -0.785  -2.306  -3.278  0.00  0.00     0.167 H 
ENDBRANCH   8   9
ENDBRANCH   7   8
ENDBRANCH   1   7
TORSDOF 4
