REMARK  3 active torsions:
REMARK  status: ('A' for Active; 'I' for Inactive)
REMARK    1  A    between atoms: C1_1  and  C2_2 
REMARK    2  A    between atoms: C2_2  and  C3_4 
REMARK    3  A    between atoms: C5_6  and  N1_11 
ROOT
ATOM      1  C3  <0> d          -3.639   1.626   0.029  0.00  0.00     0.050 A 
ATOM      2  C4  <0> d          -2.420   0.939   0.019  0.00  0.00    -0.041 A 
ATOM      3  C5  <0> d          -1.232   1.649   0.017  0.00  0.00     0.026 A 
ATOM      4  C6  <0> d          -1.249   3.040   0.030  0.00  0.00    -0.055 A 
ATOM      5  C7  <0> d          -2.450   3.722   0.035  0.00  0.00    -0.043 A 
ATOM      6  C8  <0> d          -3.646   3.027   0.037  0.00  0.00     0.130 A 
ATOM      7  F1  <0> d          -4.819   3.698   0.046  0.00  0.00    -0.205 F 
ATOM      8  H4  <0> d          -2.407  -0.141   0.013  0.00  0.00     0.088 H 
ATOM      9  H5  <0> d          -0.319   3.589   0.033  0.00  0.00     0.087 H 
ATOM     10  H6  <0> d          -2.456   4.802   0.041  0.00  0.00     0.088 H 
ENDROOT
BRANCH   1  11
ATOM     11  C2  <0> d          -4.906   0.881   0.030  0.00  0.00     0.158 C 
ATOM     12  O1  <0> d          -5.961   1.480   0.039  0.00  0.00    -0.293 OA
BRANCH  11  13
ATOM     13  C1  <0> d          -4.895  -0.626   0.021  0.00  0.00    -0.016 C 
ATOM     14  H1  <0> d          -4.417  -0.960   0.833  0.00  0.00     0.038 H 
ATOM     15  H2  <0> d          -5.920  -0.997   0.024  0.00  0.00     0.038 H 
ATOM     16  H3  <0> d          -4.383  -0.980  -0.874  0.00  0.00     0.038 H 
ENDBRANCH  11  13
ENDBRANCH   1  11
BRANCH   3  17
ATOM     17  N1  <0> d          -0.011   0.966   0.007  0.00  0.00    -0.399 N 
ATOM     18  H7  <0> d           0.002  -0.004   0.002  0.00  0.00     0.156 HD
ATOM     19  H8  <0> d           0.822   1.462   0.002  0.00  0.00     0.156 HD
ENDBRANCH   3  17
TORSDOF 3
