REMARK  1 active torsions:
REMARK  status: ('A' for Active; 'I' for Inactive)
REMARK    1  A    between atoms: C3_3  and  C5_6 
ROOT
ATOM      1  C5  <0> d           1.149   3.064   0.007  0.00  0.00     0.093 A 
ATOM      2  C6  <0> d          -0.069   3.758   0.022  0.00  0.00    -0.035 A 
ATOM      3  C7  <0> d          -1.240   3.024   0.029  0.00  0.00     0.006 A 
ATOM      4  N1  <0> d          -1.174   1.700   0.017  0.00  0.00    -0.254 NA
ATOM      5  C8  <0> d          -0.013   1.076   0.008  0.00  0.00     0.086 A 
ATOM      6  N2  <0> d           1.129   1.730   0.001  0.00  0.00    -0.239 NA
ATOM      7  H4  <0> d          -0.092   4.837   0.028  0.00  0.00     0.089 H 
ATOM      8  H5  <0> d          -2.197   3.523   0.041  0.00  0.00     0.114 H 
ATOM      9  H6  <0> d           0.002  -0.004   0.002  0.00  0.00     0.146 H 
ENDROOT
BRANCH   1  10
ATOM     10  C3  <0> d           2.429   3.797  -0.002  0.00  0.00     0.103 A 
ATOM     11  C2  <0> d           3.670   3.237  -0.011  0.00  0.00    -0.046 A 
ATOM     12  C1  <0> d           4.593   4.299  -0.019  0.00  0.00    -0.059 A 
ATOM     13  H2  <0> d           3.901   2.182  -0.014  0.00  0.00     0.087 H 
ATOM     14  C4  <0> d           3.880   5.444  -0.006  0.00  0.00     0.019 A 
ATOM     15  H1  <0> d           5.670   4.214  -0.030  0.00  0.00     0.086 H 
ATOM     16  O1  <0> d           2.574   5.137   0.004  0.00  0.00    -0.320 OA
ATOM     17  H3  <0> d           4.292   6.442  -0.004  0.00  0.00     0.123 H 
ENDBRANCH   1  10
TORSDOF 1
