REMARK  4 active torsions:
REMARK  status: ('A' for Active; 'I' for Inactive)
REMARK    1  A    between atoms: C1_1  and  C2_2 
REMARK    2  A    between atoms: C2_2  and  C10_13 
REMARK    3  A    between atoms: C4_4  and  C9_12 
REMARK    4  A    between atoms: C8_9  and  O1_11 
ROOT
ATOM      1  C2  <0> d           0.977   2.939   2.555  0.00  0.00    -0.043 C 
ATOM      2  C3  <0> d           0.225   3.308   1.232  0.00  0.00    -0.049 C 
ATOM      3  C4  <0> d           1.267   3.060   0.099  0.00  0.00    -0.017 C 
ATOM      4  C5  <0> d           2.595   3.465   0.832  0.00  0.00    -0.052 C 
ATOM      5  C6  <0> d           2.397   2.519   2.068  0.00  0.00    -0.044 C 
ATOM      6  H1  <0> d           3.184   2.540   2.821  0.00  0.00     0.041 H 
ATOM      7  C7  <0> d           2.175   1.151   1.352  0.00  0.00    -0.036 C 
ATOM      8  C8  <0> d           1.427   1.510   0.048  0.00  0.00     0.043 C 
ATOM      9  H2  <0> d           2.015   1.215  -0.821  0.00  0.00     0.084 H 
ATOM     10  H6  <0> d          -0.081   4.354   1.245  0.00  0.00     0.035 H 
ATOM     11  H7  <0> d          -0.642   2.661   1.099  0.00  0.00     0.035 H 
ATOM     12  H8  <0> d           2.599   4.517   1.118  0.00  0.00     0.034 H 
ATOM     13  H9  <0> d           3.480   3.201   0.252  0.00  0.00     0.034 H 
ATOM     14  H10 <0> d           1.566   0.493   1.971  0.00  0.00     0.037 H 
ATOM     15  H11 <0> d           3.131   0.680   1.124  0.00  0.00     0.037 H 
ENDROOT
BRANCH   1  16
ATOM     16  C1  <0> d           0.294   1.776   3.276  0.00  0.00    -0.069 C 
ATOM     17  H3  <0> d           0.957   1.388   4.049  0.00  0.00     0.028 H 
ATOM     18  H4  <0> d          -0.632   2.125   3.734  0.00  0.00     0.028 H 
ATOM     19  H5  <0> d           0.069   0.986   2.560  0.00  0.00     0.028 H 
ENDBRANCH   1  16
BRANCH   1  20
ATOM     20  C10 <0> d           1.067   4.159   3.474  0.00  0.00    -0.069 C 
ATOM     21  H16 <0> d           1.518   4.990   2.931  0.00  0.00     0.028 H 
ATOM     22  H17 <0> d           0.068   4.440   3.805  0.00  0.00     0.028 H 
ATOM     23  H18 <0> d           1.682   3.916   4.341  0.00  0.00     0.028 H 
ENDBRANCH   1  20
BRANCH   3  24
ATOM     24  C9  <0> d           0.997   3.749  -1.240  0.00  0.00    -0.067 C 
ATOM     25  H13 <0> d           0.057   3.384  -1.654  0.00  0.00     0.028 H 
ATOM     26  H14 <0> d           0.932   4.827  -1.088  0.00  0.00     0.028 H 
ATOM     27  H15 <0> d           1.809   3.528  -1.933  0.00  0.00     0.028 H 
ENDBRANCH   3  24
BRANCH   8  28
ATOM     28  O1  <0> d           0.146   0.878   0.019  0.00  0.00    -0.395 OA
ATOM     29  H12 <0> d           0.183  -0.088   0.038  0.00  0.00     0.210 HD
ENDBRANCH   8  28
TORSDOF 4
