REMARK  3 active torsions:
REMARK  status: ('A' for Active; 'I' for Inactive)
REMARK    1  A    between atoms: C1_1  and  C2_2 
REMARK    2  A    between atoms: C3_3  and  N3_9 
REMARK    3  A    between atoms: C4_4  and  C5_8 
ROOT
ATOM      1  C2  <0> d           0.002  -0.004   0.002  0.00  0.00     0.052 A 
ATOM      2  C3  <0> d           0.008  -0.800  -1.097  0.00  0.00     0.076 A 
ATOM      3  C4  <0> d           0.028  -2.133  -0.663  0.00  0.00     0.079 A 
ATOM      4  N1  <0> d           0.034  -2.140   0.646  0.00  0.00    -0.177 NA
ATOM      5  N2  <0> d           0.024  -0.813   1.094  0.00  0.00    -0.280 N 
ATOM      6  H1  <0> d           0.029  -0.523   2.020  0.00  0.00     0.189 HD
ENDROOT
BRANCH   1   7
ATOM      7  C1  <0> d          -0.018   1.503   0.010  0.00  0.00    -0.034 C 
ATOM      8  H2  <0> d           1.004   1.880   0.003  0.00  0.00     0.035 H 
ATOM      9  H3  <0> d          -0.545   1.864  -0.873  0.00  0.00     0.035 H 
ATOM     10  H4  <0> d          -0.529   1.854   0.907  0.00  0.00     0.035 H 
ENDBRANCH   1   7
BRANCH   2  11
ATOM     11  N3  <0> d          -0.004  -0.364  -2.436  0.00  0.00    -0.396 N 
ATOM     12  H8  <0> d          -0.018   0.584  -2.637  0.00  0.00     0.156 HD
ATOM     13  H9  <0> d           0.001  -1.013  -3.157  0.00  0.00     0.156 HD
ENDBRANCH   2  11
BRANCH   3  14
ATOM     14  C5  <0> d           0.040  -3.350  -1.552  0.00  0.00    -0.032 C 
ATOM     15  H5  <0> d           1.070  -3.630  -1.771  0.00  0.00     0.035 H 
ATOM     16  H6  <0> d          -0.461  -4.175  -1.044  0.00  0.00     0.035 H 
ATOM     17  H7  <0> d          -0.482  -3.126  -2.482  0.00  0.00     0.035 H 
ENDBRANCH   3  14
TORSDOF 3
