REMARK  4 active torsions:
REMARK  status: ('A' for Active; 'I' for Inactive)
REMARK    1  A    between atoms: C1_1  and  C2_2 
REMARK    2  A    between atoms: C2_2  and  C3_3 
REMARK    3  A    between atoms: C4_5  and  C6_8 
REMARK    4  A    between atoms: C4_5  and  C7_9 
ROOT
ATOM      1  C3  <0> d          -0.718   1.572   1.248  0.00  0.00     0.135 C 
ATOM      2  N1  <0> d          -1.778   2.300   1.210  0.00  0.00    -0.258 NA
ATOM      3  C4  <0> d          -2.193   2.598   2.595  0.00  0.00     0.070 C 
ATOM      4  C5  <0> d          -0.927   2.210   3.397  0.00  0.00     0.052 C 
ATOM      5  O1  <0> d          -0.297   1.277   2.492  0.00  0.00    -0.335 OA
ATOM      6  H6  <0> d          -0.293   3.079   3.574  0.00  0.00     0.079 H 
ATOM      7  H7  <0> d          -1.192   1.724   4.336  0.00  0.00     0.079 H 
ENDROOT
BRANCH   3   8
ATOM      8  C6  <0> d          -2.512   4.085   2.762  0.00  0.00    -0.049 C 
ATOM      9  H8  <0> d          -3.340   4.355   2.105  0.00  0.00     0.031 H 
ATOM     10  H9  <0> d          -2.791   4.283   3.797  0.00  0.00     0.031 H 
ATOM     11  H10 <0> d          -1.634   4.676   2.502  0.00  0.00     0.031 H 
ENDBRANCH   3   8
BRANCH   3  12
ATOM     12  C7  <0> d          -3.387   1.734   3.005  0.00  0.00    -0.049 C 
ATOM     13  H11 <0> d          -3.122   0.681   2.916  0.00  0.00     0.031 H 
ATOM     14  H12 <0> d          -3.657   1.955   4.038  0.00  0.00     0.031 H 
ATOM     15  H13 <0> d          -4.234   1.952   2.354  0.00  0.00     0.031 H 
ENDBRANCH   3  12
BRANCH   1  16
ATOM     16  C2  <0> d          -0.013   1.086   0.008  0.00  0.00    -0.007 C 
ATOM     17  H4  <0> d           0.002  -0.004   0.002  0.00  0.00     0.044 H 
ATOM     18  H5  <0> d           1.010   1.463   0.000  0.00  0.00     0.044 H 
BRANCH  16  19
ATOM     19  C1  <0> d          -0.753   1.593  -1.232  0.00  0.00    -0.069 C 
ATOM     20  H1  <0> d          -0.242   1.241  -2.128  0.00  0.00     0.028 H 
ATOM     21  H2  <0> d          -1.775   1.215  -1.224  0.00  0.00     0.028 H 
ATOM     22  H3  <0> d          -0.767   2.683  -1.226  0.00  0.00     0.028 H 
ENDBRANCH  16  19
ENDBRANCH   1  16
TORSDOF 4
