REMARK  4 active torsions:
REMARK  status: ('A' for Active; 'I' for Inactive)
REMARK    1  A    between atoms: C1_1  and  C2_2 
REMARK    2  A    between atoms: C2_2  and  C3_3 
REMARK    3  A    between atoms: C2_2  and  C4_4 
REMARK    4  A    between atoms: C2_2  and  C5_5 
ROOT
ATOM      1  C5  <0> d           0.002  -0.004   0.002  0.00  0.00     0.021 C 
ATOM      2  C6  <0> d           0.714  -0.492   1.195  0.00  0.00     0.059 C 
ATOM      3  N1  <0> d           1.263  -0.868   2.115  0.00  0.00    -0.197 NA
ATOM      4  H10 <0> d          -1.020  -0.381   0.010  0.00  0.00     0.056 H 
ATOM      5  H11 <0> d           0.512  -0.356  -0.895  0.00  0.00     0.056 H 
ENDROOT
BRANCH   1   6
ATOM      6  C2  <0> d          -0.019   1.526   0.010  0.00  0.00    -0.039 C 
BRANCH   6   7
ATOM      7  C1  <0> d           1.417   2.055  -0.000  0.00  0.00    -0.069 C 
ATOM      8  H1  <0> d           1.927   1.704  -0.897  0.00  0.00     0.028 H 
ATOM      9  H2  <0> d           1.402   3.145   0.006  0.00  0.00     0.028 H 
ATOM     10  H3  <0> d           1.944   1.694   0.883  0.00  0.00     0.028 H 
ENDBRANCH   6   7
BRANCH   6  11
ATOM     11  C3  <0> d          -0.759   2.033  -1.229  0.00  0.00    -0.069 C 
ATOM     12  H4  <0> d          -1.781   1.655  -1.221  0.00  0.00     0.028 H 
ATOM     13  H5  <0> d          -0.773   3.123  -1.223  0.00  0.00     0.028 H 
ATOM     14  H6  <0> d          -0.248   1.681  -2.126  0.00  0.00     0.028 H 
ENDBRANCH   6  11
BRANCH   6  15
ATOM     15  C4  <0> d          -0.735   2.019   1.269  0.00  0.00    -0.069 C 
ATOM     16  H7  <0> d          -0.208   1.658   2.152  0.00  0.00     0.028 H 
ATOM     17  H8  <0> d          -0.750   3.109   1.275  0.00  0.00     0.028 H 
ATOM     18  H9  <0> d          -1.757   1.642   1.277  0.00  0.00     0.028 H 
ENDBRANCH   6  15
ENDBRANCH   1   6
TORSDOF 4
