REMARK  5 active torsions:
REMARK  status: ('A' for Active; 'I' for Inactive)
REMARK    1  A    between atoms: C1_1  and  C2_2 
REMARK    2  A    between atoms: C2_2  and  O1_3 
REMARK    3  A    between atoms: O1_3  and  C3_4 
REMARK    4  A    between atoms: C3_4  and  C4_5 
REMARK    5  A    between atoms: C8_9  and  C10_11 
ROOT
ATOM      1  C4  <0> d           1.467  -2.260  -2.550  0.00  0.00    -0.034 A 
ATOM      2  C5  <0> d           0.756  -2.436  -3.722  0.00  0.00    -0.075 A 
ATOM      3  C6  <0> d           1.417  -2.777  -4.887  0.00  0.00    -0.082 A 
ATOM      4  C7  <0> d           2.790  -2.942  -4.880  0.00  0.00    -0.077 A 
ATOM      5  C8  <0> d           3.501  -2.765  -3.708  0.00  0.00    -0.061 A 
ATOM      6  C9  <0> d           2.840  -2.420  -2.543  0.00  0.00    -0.069 A 
ATOM      7  H8  <0> d          -0.316  -2.307  -3.728  0.00  0.00     0.084 H 
ATOM      8  H9  <0> d           0.862  -2.915  -5.803  0.00  0.00     0.083 H 
ATOM      9  H10 <0> d           3.307  -3.209  -5.790  0.00  0.00     0.084 H 
ATOM     10  H11 <0> d           3.396  -2.278  -1.628  0.00  0.00     0.085 H 
ENDROOT
BRANCH   1  11
ATOM     11  C3  <0> d           0.746  -1.888  -1.280  0.00  0.00     0.043 C 
ATOM     12  H6  <0> d           1.288  -2.288  -0.423  0.00  0.00     0.081 H 
ATOM     13  H7  <0> d          -0.261  -2.304  -1.299  0.00  0.00     0.081 H 
BRANCH  11  14
ATOM     14  O1  <0> d           0.671  -0.465  -1.174  0.00  0.00    -0.387 OA
BRANCH  14  15
ATOM     15  C2  <0> d           0.002  -0.004   0.002  0.00  0.00     0.017 C 
ATOM     16  H4  <0> d           0.529  -0.365   0.885  0.00  0.00     0.073 H 
ATOM     17  H5  <0> d          -1.020  -0.381   0.010  0.00  0.00     0.073 H 
BRANCH  15  18
ATOM     18  C1  <0> d          -0.019   1.526   0.010  0.00  0.00    -0.056 C 
ATOM     19  H1  <0> d           1.004   1.903   0.003  0.00  0.00     0.030 H 
ATOM     20  H2  <0> d          -0.546   1.887  -0.873  0.00  0.00     0.030 H 
ATOM     21  H3  <0> d          -0.529   1.877   0.907  0.00  0.00     0.030 H 
ENDBRANCH  15  18
ENDBRANCH  14  15
ENDBRANCH  11  14
ENDBRANCH   1  11
BRANCH   5  22
ATOM     22  C10 <0> d           4.997  -2.945  -3.699  0.00  0.00    -0.051 C 
ATOM     23  H12 <0> d           5.479  -1.993  -3.921  0.00  0.00     0.033 H 
ATOM     24  H13 <0> d           5.316  -3.293  -2.717  0.00  0.00     0.033 H 
ATOM     25  H14 <0> d           5.279  -3.679  -4.454  0.00  0.00     0.033 H 
ENDBRANCH   5  22
TORSDOF 5
