REMARK  0 active torsions:
REMARK  status: ('A' for Active; 'I' for Inactive)
ROOT
ATOM      1  C1  <0> d          -1.195   3.176   0.032  0.00  0.00    -0.048 A 
ATOM      2  C2  <0> d          -0.013   3.831   0.024  0.00  0.00    -0.018 A 
ATOM      3  N1  <0> d           1.162   3.151   0.008  0.00  0.00    -0.334 N 
ATOM      4  H1  <0> d           2.115   3.701   0.002  0.00  0.00     0.168 HD
ATOM      5  C3  <0> d           1.189   1.806   0.000  0.00  0.00     0.246 A 
ATOM      6  O1  <0> d           2.259   1.218  -0.013  0.00  0.00    -0.268 OA
ATOM      7  C4  <0> d          -0.013   1.076   0.008  0.00  0.00     0.003 A 
ATOM      8  C5  <0> d          -1.216   1.763   0.017  0.00  0.00     0.051 A 
ATOM      9  C6  <0> d          -2.460   1.053   0.019  0.00  0.00     0.099 C 
ATOM     10  N2  <0> d          -3.446   0.489   0.021  0.00  0.00    -0.191 NA
ATOM     11  H2  <0> d          -2.122   3.731   0.044  0.00  0.00     0.087 H 
ATOM     12  H3  <0> d          -0.004   4.911   0.030  0.00  0.00     0.111 H 
ATOM     13  H4  <0> d           0.002  -0.004   0.002  0.00  0.00     0.094 H 
ENDROOT
TORSDOF 0
