REMARK  1 active torsions:
REMARK  status: ('A' for Active; 'I' for Inactive)
REMARK    1  A    between atoms: C1_1  and  C2_2 
ROOT
ATOM      1  C2  <0> d           0.558  -2.702  -0.019  0.00  0.00    -0.057 A 
ATOM      2  C3  <0> d          -0.760  -2.232  -0.004  0.00  0.00    -0.060 A 
ATOM      3  C4  <0> d          -1.008  -0.901   0.006  0.00  0.00     0.011 A 
ATOM      4  N1  <0> d           0.002  -0.004   0.002  0.00  0.00    -0.204 N 
ATOM      5  C5  <0> d           1.291  -0.431  -0.013  0.00  0.00     0.161 A 
ATOM      6  C6  <0> d           1.585  -1.802  -0.023  0.00  0.00    -0.030 A 
ATOM      7  N2  <0> d           2.072   0.659  -0.014  0.00  0.00    -0.166 NA
ATOM      8  C7  <0> d           1.238   1.698  -0.001  0.00  0.00     0.411 A 
ATOM      9  O1  <0> d           1.555   2.876   0.003  0.00  0.00    -0.234 OA
ATOM     10  O2  <0> d          -0.014   1.213   0.009  0.00  0.00    -0.171 OA
ATOM     11  H4  <0> d          -1.581  -2.933  -0.000  0.00  0.00     0.086 H 
ATOM     12  H5  <0> d          -2.030  -0.551   0.018  0.00  0.00     0.115 H 
ATOM     13  H6  <0> d           2.610  -2.141  -0.035  0.00  0.00     0.090 H 
ENDROOT
BRANCH   1  14
ATOM     14  C1  <0> d           0.841  -4.183  -0.029  0.00  0.00    -0.051 C 
ATOM     15  H1  <0> d           0.899  -4.534  -1.059  0.00  0.00     0.033 H 
ATOM     16  H2  <0> d           1.788  -4.375   0.474  0.00  0.00     0.033 H 
ATOM     17  H3  <0> d           0.039  -4.709   0.489  0.00  0.00     0.033 H 
ENDBRANCH   1  14
TORSDOF 1
