REMARK  5 active torsions:
REMARK  status: ('A' for Active; 'I' for Inactive)
REMARK    1  A    between atoms: C1_1  and  C2_2 
REMARK    2  A    between atoms: C5_5  and  C8_8 
REMARK    3  A    between atoms: C8_8  and  C9_10 
REMARK    4  A    between atoms: C8_8  and  C10_11 
REMARK    5  A    between atoms: C10_11  and  O1_12 
ROOT
ATOM      1  C2  <0> d           0.040  -2.768  -0.013  0.00  0.00    -0.062 A 
ATOM      2  C3  <0> d           1.227  -2.061  -0.020  0.00  0.00    -0.077 A 
ATOM      3  C4  <0> d           1.208  -0.679  -0.013  0.00  0.00    -0.076 A 
ATOM      4  C5  <0> d           0.002  -0.004   0.002  0.00  0.00    -0.052 A 
ATOM      5  C6  <0> d          -1.185  -0.712   0.015  0.00  0.00    -0.076 A 
ATOM      6  C7  <0> d          -1.167  -2.094   0.003  0.00  0.00    -0.077 A 
ATOM      7  H5  <0> d           2.170  -2.588  -0.032  0.00  0.00     0.084 H 
ATOM      8  H6  <0> d           2.136  -0.126  -0.019  0.00  0.00     0.084 H 
ATOM      9  H7  <0> d          -2.128  -0.184   0.032  0.00  0.00     0.084 H 
ATOM     10  H8  <0> d          -2.095  -2.646   0.009  0.00  0.00     0.084 H 
ENDROOT
BRANCH   4  11
ATOM     11  C8  <0> d          -0.018   1.503   0.010  0.00  0.00    -0.012 C 
ATOM     12  H1  <0> d           1.019   1.869   0.002  0.00  0.00     0.050 H 
BRANCH  11  13
ATOM     13  C9  <0> d          -0.735   1.996   1.269  0.00  0.00    -0.067 C 
ATOM     14  H9  <0> d          -0.749   3.096   1.275  0.00  0.00     0.028 H 
ATOM     15  H10 <0> d          -0.202   1.632   2.160  0.00  0.00     0.028 H 
ATOM     16  H11 <0> d          -1.766   1.615   1.277  0.00  0.00     0.028 H 
ENDBRANCH  11  13
BRANCH  11  17
ATOM     17  C10 <0> d          -0.758   2.010  -1.229  0.00  0.00     0.024 C 
ATOM     18  H12 <0> d          -0.297   1.582  -2.132  0.00  0.00     0.075 H 
ATOM     19  H13 <0> d          -1.814   1.704  -1.177  0.00  0.00     0.075 H 
BRANCH  17  20
ATOM     20  O1  <0> d          -0.677   3.435  -1.282  0.00  0.00    -0.400 OA
ATOM     21  H14 <0> d          -1.154   3.983  -2.109  0.00  0.00     0.209 HD
ENDBRANCH  17  20
ENDBRANCH  11  17
ENDBRANCH   4  11
BRANCH   1  22
ATOM     22  C1  <0> d           0.060  -4.275  -0.021  0.00  0.00    -0.051 C 
ATOM     23  H2  <0> d           1.102  -4.628  -0.033  0.00  0.00     0.033 H 
ATOM     24  H3  <0> d          -0.462  -4.644  -0.916  0.00  0.00     0.033 H 
ATOM     25  H4  <0> d          -0.445  -4.654   0.880  0.00  0.00     0.033 H 
ENDBRANCH   1  22
TORSDOF 5
