REMARK  1 active torsions:
REMARK  status: ('A' for Active; 'I' for Inactive)
REMARK    1  A    between atoms: C3_3  and  O1_12 
ROOT
ATOM      1  C1  <0> d           2.399   1.423  -0.013  0.00  0.00    -0.054 A 
ATOM      2  C2  <0> d           2.407   0.046  -0.021  0.00  0.00    -0.046 A 
ATOM      3  C3  <0> d           1.214  -0.670  -0.013  0.00  0.00     0.105 A 
ATOM      4  C4  <0> d           0.002  -0.004   0.002  0.00  0.00     0.161 A 
ATOM      5  C5  <0> d          -0.017   1.393   0.010  0.00  0.00     0.033 A 
ATOM      6  C6  <0> d           1.192   2.112   0.002  0.00  0.00     0.045 A 
ATOM      7  N1  <0> d           0.866   3.453   0.012  0.00  0.00    -0.365 N 
ATOM      8  H1  <0> d           1.506   4.181   0.010  0.00  0.00     0.165 HD
ATOM      9  C7  <0> d          -0.494   3.600   0.025  0.00  0.00    -0.022 A 
ATOM     10  C8  <0> d          -1.086   2.396   0.019  0.00  0.00    -0.053 A 
ATOM     11  F1  <0> d          -1.156  -0.700   0.010  0.00  0.00    -0.202 F 
ATOM     12  H2  <0> d           3.332   1.968  -0.019  0.00  0.00     0.087 H 
ATOM     13  H3  <0> d           3.348  -0.484  -0.033  0.00  0.00     0.087 H 
ATOM     14  H4  <0> d          -1.015   4.546   0.035  0.00  0.00     0.111 H 
ATOM     15  H5  <0> d          -2.148   2.201   0.023  0.00  0.00     0.087 H 
ENDROOT
BRANCH   3  16
ATOM     16  O1  <0> d           1.239  -2.030  -0.021  0.00  0.00    -0.358 OA
ATOM     17  H6  <0> d           1.238  -2.419  -0.906  0.00  0.00     0.217 HD
ENDBRANCH   3  16
TORSDOF 1
