REMARK  3 active torsions:
REMARK  status: ('A' for Active; 'I' for Inactive)
REMARK    1  A    between atoms: C1_1  and  N1_2 
REMARK    2  A    between atoms: C4_5  and  C7_9 
REMARK    3  A    between atoms: C7_9  and  O2_10 
ROOT
ATOM      1  N1  <0> d           0.002  -0.004   0.002  0.00  0.00    -0.329 N 
ATOM      2  C2  <0> d           0.005  -0.669  -1.182  0.00  0.00    -0.017 A 
ATOM      3  C3  <0> d           0.023  -2.022  -1.215  0.00  0.00    -0.060 A 
ATOM      4  C4  <0> d           0.039  -2.751  -0.017  0.00  0.00    -0.028 A 
ATOM      5  C5  <0> d           0.036  -2.081   1.171  0.00  0.00    -0.009 A 
ATOM      6  C6  <0> d           0.022  -0.676   1.169  0.00  0.00     0.247 A 
ATOM      7  O1  <0> d           0.024  -0.064   2.225  0.00  0.00    -0.268 OA
ATOM      8  H4  <0> d          -0.006  -0.112  -2.107  0.00  0.00     0.111 H 
ATOM      9  H5  <0> d           0.025  -2.539  -2.163  0.00  0.00     0.086 H 
ATOM     10  H6  <0> d           0.048  -2.625   2.104  0.00  0.00     0.092 H 
ENDROOT
BRANCH   4  11
ATOM     11  C7  <0> d           0.058  -4.257  -0.043  0.00  0.00     0.041 C 
ATOM     12  H7  <0> d          -0.830  -4.623  -0.558  0.00  0.00     0.081 H 
ATOM     13  H8  <0> d           0.950  -4.600  -0.567  0.00  0.00     0.081 H 
BRANCH  11  14
ATOM     14  O2  <0> d           0.072  -4.756   1.296  0.00  0.00    -0.396 OA
ATOM     15  H9  <0> d           0.084  -5.721   1.356  0.00  0.00     0.209 HD
ENDBRANCH  11  14
ENDBRANCH   4  11
BRANCH   1  16
ATOM     16  C1  <0> d          -0.018   1.461   0.010  0.00  0.00    -0.012 C 
ATOM     17  H1  <0> d           1.005   1.838   0.002  0.00  0.00     0.057 H 
ATOM     18  H2  <0> d          -0.545   1.822  -0.873  0.00  0.00     0.057 H 
ATOM     19  H3  <0> d          -0.528   1.812   0.907  0.00  0.00     0.057 H 
ENDBRANCH   1  16
TORSDOF 3
