REMARK  2 active torsions:
REMARK  status: ('A' for Active; 'I' for Inactive)
REMARK    1  A    between atoms: C1_1  and  C2_2 
REMARK    2  A    between atoms: C3_3  and  C6_8 
ROOT
ATOM      1  C2  <0> d           0.002  -0.004   0.002  0.00  0.00    -0.055 A 
ATOM      2  C3  <0> d          -0.016   1.325   0.009  0.00  0.00     0.009 A 
ATOM      3  C4  <0> d           1.357   1.840  -0.001  0.00  0.00     0.247 A 
ATOM      4  O1  <0> d           1.660   3.018   0.002  0.00  0.00    -0.268 OA
ATOM      5  N1  <0> d           2.233   0.818  -0.015  0.00  0.00    -0.353 N 
ATOM      6  C5  <0> d           1.453  -0.426  -0.014  0.00  0.00     0.016 A 
ATOM      7  H4  <0> d           3.200   0.890  -0.023  0.00  0.00     0.163 HD
ATOM      8  H5  <0> d           1.683  -1.014   0.875  0.00  0.00     0.070 H 
ATOM      9  H6  <0> d           1.666  -1.004  -0.913  0.00  0.00     0.070 H 
ENDROOT
BRANCH   1  10
ATOM     10  C1  <0> d          -1.197  -0.917   0.009  0.00  0.00    -0.052 C 
ATOM     11  H1  <0> d          -1.496  -1.131  -1.017  0.00  0.00     0.033 H 
ATOM     12  H2  <0> d          -0.942  -1.848   0.515  0.00  0.00     0.033 H 
ATOM     13  H3  <0> d          -2.020  -0.431   0.534  0.00  0.00     0.033 H 
ENDBRANCH   1  10
BRANCH   2  14
ATOM     14  C6  <0> d          -1.260   2.175   0.020  0.00  0.00    -0.046 C 
ATOM     15  H7  <0> d          -1.556   2.374   1.050  0.00  0.00     0.033 H 
ATOM     16  H8  <0> d          -1.061   3.117  -0.490  0.00  0.00     0.033 H 
ATOM     17  H9  <0> d          -2.065   1.647  -0.493  0.00  0.00     0.033 H 
ENDBRANCH   2  14
TORSDOF 2
