REMARK  4 active torsions:
REMARK  status: ('A' for Active; 'I' for Inactive)
REMARK    1  A    between atoms: C1_1  and  C2_2 
REMARK    2  A    between atoms: C5_5  and  C9_9 
REMARK    3  A    between atoms: C6_6  and  C8_8 
REMARK    4  A    between atoms: C9_9  and  C10_11 
ROOT
ATOM      1  C2  <0> d           2.288   1.515   0.243  0.00  0.00    -0.061 A 
ATOM      2  C3  <0> d           1.053   2.089  -0.003  0.00  0.00    -0.076 A 
ATOM      3  C4  <0> d          -0.045   1.293  -0.253  0.00  0.00    -0.069 A 
ATOM      4  C5  <0> d           0.093  -0.099  -0.257  0.00  0.00     0.015 A 
ATOM      5  C6  <0> d           1.344  -0.672  -0.008  0.00  0.00    -0.048 A 
ATOM      6  C7  <0> d           2.432   0.138   0.240  0.00  0.00    -0.071 A 
ATOM      7  H4  <0> d           0.948   3.164   0.001  0.00  0.00     0.084 H 
ATOM      8  H5  <0> d          -1.007   1.742  -0.448  0.00  0.00     0.085 H 
ATOM      9  H6  <0> d           3.399  -0.302   0.432  0.00  0.00     0.085 H 
ENDROOT
BRANCH   4  10
ATOM     10  C9  <0> d          -1.073  -0.957  -0.523  0.00  0.00     0.156 C 
ATOM     11  O1  <0> d          -0.932  -2.156  -0.635  0.00  0.00    -0.293 OA
BRANCH  10  12
ATOM     12  C10 <0> d          -2.444  -0.344  -0.656  0.00  0.00    -0.017 C 
ATOM     13  H10 <0> d          -2.611  -0.106  -1.613  0.00  0.00     0.038 H 
ATOM     14  H11 <0> d          -3.196  -1.060  -0.323  0.00  0.00     0.038 H 
ATOM     15  H12 <0> d          -2.502   0.555  -0.043  0.00  0.00     0.038 H 
ENDBRANCH  10  12
ENDBRANCH   4  10
BRANCH   5  16
ATOM     16  C8  <0> d           1.503  -2.171  -0.010  0.00  0.00    -0.050 C 
ATOM     17  H7  <0> d           1.635  -2.521  -1.034  0.00  0.00     0.033 H 
ATOM     18  H8  <0> d           2.376  -2.444   0.583  0.00  0.00     0.033 H 
ATOM     19  H9  <0> d           0.613  -2.631   0.420  0.00  0.00     0.033 H 
ENDBRANCH   5  16
BRANCH   1  20
ATOM     20  C1  <0> d           3.482   2.393   0.514  0.00  0.00    -0.051 C 
ATOM     21  H1  <0> d           3.981   2.628  -0.425  0.00  0.00     0.033 H 
ATOM     22  H2  <0> d           3.154   3.315   0.993  0.00  0.00     0.033 H 
ATOM     23  H3  <0> d           4.176   1.869   1.173  0.00  0.00     0.033 H 
ENDBRANCH   1  20
TORSDOF 4
