REMARK  3 active torsions:
REMARK  status: ('A' for Active; 'I' for Inactive)
REMARK    1  A    between atoms: C1_1  and  C3_4 
REMARK    2  A    between atoms: C3_4  and  C4_6 
REMARK    3  A    between atoms: C3_4  and  O1_10 
ROOT
ATOM      1  C1  <0> d           0.002  -0.004   0.002  0.00  0.00     0.047 C 
ATOM      2  C2  <0> d           0.794  -0.478  -1.145  0.00  0.00     0.061 C 
ATOM      3  N1  <0> d           1.405  -0.843  -2.030  0.00  0.00    -0.197 NA
ATOM      4  H2  <0> d          -1.027  -0.384  -0.081  0.00  0.00     0.059 H 
ATOM      5  H3  <0> d           0.454  -0.370   0.936  0.00  0.00     0.059 H 
ENDROOT
BRANCH   1   6
ATOM      6  C3  <0> d          -0.019   1.526   0.010  0.00  0.00     0.140 C 
ATOM      7  H1  <0> d           0.999   1.939  -0.058  0.00  0.00     0.098 H 
BRANCH   6   8
ATOM      8  C4  <0> d          -0.735   2.019   1.269  0.00  0.00     0.413 C 
ATOM      9  F1  <0> d          -0.058   1.556   2.403  0.00  0.00    -0.168 F 
ATOM     10  F2  <0> d          -0.754   3.418   1.277  0.00  0.00    -0.168 F 
ATOM     11  F3  <0> d          -2.047   1.535   1.279  0.00  0.00    -0.168 F 
ENDBRANCH   6   8
BRANCH   6  12
ATOM     12  O1  <0> d          -0.710   1.999  -1.147  0.00  0.00    -0.386 OA
ATOM     13  H4  <0> d          -0.827   3.080  -1.315  0.00  0.00     0.210 HD
ENDBRANCH   6  12
ENDBRANCH   1   6
TORSDOF 3
