REMARK  2 active torsions:
REMARK  status: ('A' for Active; 'I' for Inactive)
REMARK    1  A    between atoms: C1_1  and  O1_2 
REMARK    2  A    between atoms: O1_2  and  C2_3 
ROOT
ATOM      1  C2  <0> d          -1.203   1.743   0.017  0.00  0.00     0.154 A 
ATOM      2  C3  <0> d          -0.013   1.076   0.008  0.00  0.00     0.041 A 
ATOM      3  N1  <0> d           1.135   1.761   0.001  0.00  0.00    -0.253 NA
ATOM      4  C4  <0> d           1.151   3.066   0.008  0.00  0.00     0.066 A 
ATOM      5  N2  <0> d           0.011   3.787   0.022  0.00  0.00    -0.316 N 
ATOM      6  H1  <0> d           0.056   4.886   0.027  0.00  0.00     0.170 HD
ATOM      7  C5  <0> d          -1.184   3.158   0.030  0.00  0.00     0.281 A 
ATOM      8  O2  <0> d          -2.224   3.796   0.043  0.00  0.00    -0.265 OA
ATOM      9  H5  <0> d           0.002  -0.004   0.002  0.00  0.00     0.119 H 
ATOM     10  H6  <0> d           2.100   3.581   0.001  0.00  0.00     0.143 H 
ENDROOT
BRANCH   1  11
ATOM     11  O1  <0> d          -2.381   1.064   0.019  0.00  0.00    -0.350 OA
BRANCH  11  12
ATOM     12  C1  <0> d          -2.307  -0.363   0.011  0.00  0.00     0.011 C 
ATOM     13  H2  <0> d          -3.324  -0.783   0.013  0.00  0.00     0.067 H 
ATOM     14  H3  <0> d          -1.766  -0.708   0.905  0.00  0.00     0.067 H 
ATOM     15  H4  <0> d          -1.775  -0.698  -0.892  0.00  0.00     0.067 H 
ENDBRANCH  11  12
ENDBRANCH   1  11
TORSDOF 2
