REMARK  7 active torsions:
REMARK  status: ('A' for Active; 'I' for Inactive)
REMARK    1  A    between atoms: C1_1  and  C2_2 
REMARK    2  A    between atoms: C2_2  and  C3_3 
REMARK    3  A    between atoms: C3_3  and  O1_4 
REMARK    4  A    between atoms: O1_4  and  C4_5 
REMARK    5  A    between atoms: C4_5  and  C5_6 
REMARK    6  A    between atoms: C5_6  and  O3_8 
REMARK    7  A    between atoms: O3_8  and  C6_9 
ROOT
ATOM      1  O1  <0> d          -2.403   0.997   0.019  0.00  0.00    -0.381 OA
ENDROOT
BRANCH   1   2
ATOM      2  C3  <0> d          -3.701   1.593   0.028  0.00  0.00     0.020 C 
ATOM      3  H6  <0> d          -3.812   2.207   0.922  0.00  0.00     0.074 H 
ATOM      4  H7  <0> d          -3.821   2.217  -0.858  0.00  0.00     0.074 H 
BRANCH   2   5
ATOM      5  C2  <0> d          -4.767   0.496   0.027  0.00  0.00    -0.049 C 
ATOM      6  H4  <0> d          -4.656  -0.118  -0.867  0.00  0.00     0.035 H 
ATOM      7  H5  <0> d          -4.648  -0.128   0.913  0.00  0.00     0.035 H 
BRANCH   5   8
ATOM      8  C1  <0> d          -6.157   1.135   0.037  0.00  0.00    -0.075 C 
ATOM      9  H1  <0> d          -6.277   1.758  -0.849  0.00  0.00     0.027 H 
ATOM     10  H2  <0> d          -6.917   0.353   0.037  0.00  0.00     0.027 H 
ATOM     11  H3  <0> d          -6.269   1.749   0.931  0.00  0.00     0.027 H 
ENDBRANCH   5   8
ENDBRANCH   2   5
ENDBRANCH   1   2
BRANCH   1  12
ATOM     12  C4  <0> d          -1.329   1.940   0.019  0.00  0.00     0.099 C 
ATOM     13  H8  <0> d          -1.391   2.561   0.913  0.00  0.00     0.089 H 
ATOM     14  H9  <0> d          -1.400   2.570  -0.867  0.00  0.00     0.089 H 
BRANCH  12  15
ATOM     15  C5  <0> d          -0.014   1.204   0.009  0.00  0.00     0.282 C 
ATOM     16  O2  <0> d           0.002  -0.004   0.002  0.00  0.00    -0.263 OA
BRANCH  15  17
ATOM     17  O3  <0> d           1.139   1.891   0.001  0.00  0.00    -0.325 OA
BRANCH  17  18
ATOM     18  C6  <0> d           2.367   1.117  -0.015  0.00  0.00     0.013 C 
ATOM     19  H10 <0> d           2.392   0.493  -0.908  0.00  0.00     0.067 H 
ATOM     20  H11 <0> d           3.223   1.792  -0.019  0.00  0.00     0.067 H 
ATOM     21  H12 <0> d           2.409   0.484   0.872  0.00  0.00     0.067 H 
ENDBRANCH  17  18
ENDBRANCH  15  17
ENDBRANCH  12  15
ENDBRANCH   1  12
TORSDOF 7
