REMARK  2 active torsions:
REMARK  status: ('A' for Active; 'I' for Inactive)
REMARK    1  A    between atoms: C2_2  and  O1_9 
REMARK    2  A    between atoms: C3_4  and  N3_8 
ROOT
ATOM      1  C1  <0> d           2.322   1.342  -0.013  0.00  0.00     0.008 A 
ATOM      2  C2  <0> d           2.307  -0.051  -0.020  0.00  0.00     0.184 A 
ATOM      3  N1  <0> d           1.139  -0.684  -0.013  0.00  0.00    -0.039 NA
ATOM      4  C3  <0> d           0.002  -0.004   0.002  0.00  0.00     0.724 A 
ATOM      5  N2  <0> d          -0.016   1.320   0.009  0.00  0.00    -0.051 NA
ATOM      6  C4  <0> d           1.113   2.016   0.002  0.00  0.00     0.149 A 
ATOM      7 Cl1  <0> d           1.075   3.752   0.011  0.00  0.00    -0.062 Cl
ATOM      8  H1  <0> d           3.256   1.885  -0.019  0.00  0.00     0.095 H 
ENDROOT
BRANCH   4   9
ATOM      9  N3  <0> d          -1.197  -0.695   0.010  0.00  0.00    -0.231 N 
ATOM     10  H2  <0> d          -2.037  -0.210   0.021  0.00  0.00     0.174 HD
ATOM     11  H3  <0> d          -1.198  -1.665   0.005  0.00  0.00     0.174 HD
ENDBRANCH   4   9
BRANCH   2  12
ATOM     12  O1  <0> d           3.467  -0.750  -0.035  0.00  0.00    -0.344 OA
ATOM     13  H4  <0> d           3.796  -0.949  -0.922  0.00  0.00     0.219 HD
ENDBRANCH   2  12
TORSDOF 2
