REMARK  4 active torsions:
REMARK  status: ('A' for Active; 'I' for Inactive)
REMARK    1  A    between atoms: C1_1  and  C2_2 
REMARK    2  A    between atoms: C4_5  and  C8_11 
REMARK    3  A    between atoms: C4_5  and  C9_12 
REMARK    4  A    between atoms: C5_7  and  C6_9 
ROOT
ATOM      1  C2  <0> d          -0.013   1.086   0.008  0.00  0.00     0.045 C 
ATOM      2  H1  <0> d           0.002  -0.004   0.002  0.00  0.00     0.083 H 
ATOM      3  C3  <0> d          -0.770   1.602  -1.224  0.00  0.00    -0.016 C 
ATOM      4  C4  <0> d          -2.191   1.027  -1.184  0.00  0.00     0.051 C 
ATOM      5  N1  <0> d          -2.754   1.195   0.153  0.00  0.00    -0.257 NA
ATOM      6  C5  <0> d          -2.038   1.429   1.200  0.00  0.00     0.159 C 
ATOM      7  O1  <0> d          -0.696   1.554   1.175  0.00  0.00    -0.330 OA
ATOM      8  H5  <0> d          -0.812   2.691  -1.201  0.00  0.00     0.040 H 
ATOM      9  H6  <0> d          -0.264   1.272  -2.132  0.00  0.00     0.040 H 
ENDROOT
BRANCH   4  10
ATOM     10  C8  <0> d          -2.147  -0.461  -1.535  0.00  0.00    -0.051 C 
ATOM     11  H10 <0> d          -3.158  -0.870  -1.512  0.00  0.00     0.030 H 
ATOM     12  H11 <0> d          -1.727  -0.588  -2.533  0.00  0.00     0.030 H 
ATOM     13  H12 <0> d          -1.526  -0.988  -0.810  0.00  0.00     0.030 H 
ENDBRANCH   4  10
BRANCH   4  14
ATOM     14  C9  <0> d          -3.066   1.763  -2.201  0.00  0.00    -0.051 C 
ATOM     15  H13 <0> d          -3.100   2.823  -1.951  0.00  0.00     0.030 H 
ATOM     16  H14 <0> d          -2.646   1.638  -3.199  0.00  0.00     0.030 H 
ATOM     17  H15 <0> d          -4.075   1.351  -2.177  0.00  0.00     0.030 H 
ENDBRANCH   4  14
BRANCH   1  18
ATOM     18  C1  <0> d           1.420   1.623  -0.003  0.00  0.00    -0.052 C 
ATOM     19  H2  <0> d           1.949   1.264   0.880  0.00  0.00     0.030 H 
ATOM     20  H3  <0> d           1.932   1.274  -0.900  0.00  0.00     0.030 H 
ATOM     21  H4  <0> d           1.400   2.712   0.003  0.00  0.00     0.030 H 
ENDBRANCH   1  18
BRANCH   6  22
ATOM     22  C6  <0> d          -2.725   1.566   2.495  0.00  0.00    -0.041 C 
ATOM     23  C7  <0> d          -2.023   1.807   3.597  0.00  0.00    -0.117 C 
ATOM     24  H8  <0> d          -0.949   1.902   3.543  0.00  0.00     0.066 H 
ATOM     25  H9  <0> d          -2.527   1.907   4.547  0.00  0.00     0.066 H 
ATOM     26  H7  <0> d          -3.800   1.471   2.550  0.00  0.00     0.088 H 
ENDBRANCH   6  22
TORSDOF 4
