REMARK  1 active torsions:
REMARK  status: ('A' for Active; 'I' for Inactive)
REMARK    1  A    between atoms: C9_10  and  O1_12 
ROOT
ATOM      1  C1  <0> d          -1.043   1.341   3.621  0.00  0.00    -0.082 A 
ATOM      2  C2  <0> d          -1.940   2.393   3.594  0.00  0.00    -0.082 A 
ATOM      3  C3  <0> d          -2.211   3.027   2.408  0.00  0.00    -0.074 A 
ATOM      4  C4  <0> d          -1.601   2.614   1.233  0.00  0.00    -0.020 A 
ATOM      5  C5  <0> d          -0.709   1.567   1.254  0.00  0.00    -0.021 A 
ATOM      6  C6  <0> d          -0.431   0.930   2.454  0.00  0.00    -0.075 A 
ATOM      7  C7  <0> d          -0.013   1.086   0.008  0.00  0.00     0.136 C 
ATOM      8  N1  <0> d          -0.714   1.568  -1.186  0.00  0.00     0.090 N 
ATOM      9  C8  <0> d          -0.896   3.026  -1.116  0.00  0.00     0.139 C 
ATOM     10  C9  <0> d          -1.945   3.333  -0.047  0.00  0.00     0.086 C 
ATOM     11  H1  <0> d          -2.954   3.050  -0.382  0.00  0.00     0.093 H 
ATOM     12  H2  <0> d          -0.823   0.842   4.552  0.00  0.00     0.083 H 
ATOM     13  H3  <0> d          -2.420   2.719   4.505  0.00  0.00     0.083 H 
ATOM     14  H4  <0> d          -2.912   3.849   2.389  0.00  0.00     0.084 H 
ATOM     15  H5  <0> d           0.270   0.109   2.476  0.00  0.00     0.084 H 
ATOM     16  H6  <0> d           1.020   1.465  -0.004  0.00  0.00     0.086 H 
ATOM     17  H7  <0> d           0.001  -0.014  -0.003  0.00  0.00     0.086 H 
ATOM     18  H8  <0> d          -0.124   1.322  -2.082  0.00  0.00     0.316 HD
ATOM     19  H9  <0> d           0.059   3.503  -0.852  0.00  0.00     0.084 H 
ATOM     20  H10 <0> d          -1.235   3.401  -2.093  0.00  0.00     0.084 H 
ENDROOT
BRANCH  10  21
ATOM     21  O1  <0> d          -1.978   4.741   0.195  0.00  0.00    -0.389 OA
ATOM     22  H11 <0> d          -2.213   5.435  -0.626  0.00  0.00     0.210 HD
ENDBRANCH  10  21
TORSDOF 1
