REMARK  0 active torsions:
REMARK  status: ('A' for Active; 'I' for Inactive)
ROOT
ATOM      1  C1  <0> d           1.153   1.796   0.001  0.00  0.00    -0.065 A 
ATOM      2  C2  <0> d          -0.013   1.076   0.008  0.00  0.00    -0.067 A 
ATOM      3  C3  <0> d          -1.223   1.779   0.017  0.00  0.00     0.030 A 
ATOM      4  C4  <0> d          -2.628   1.387   0.021  0.00  0.00     0.035 A 
ATOM      5  N1  <0> d          -3.342   2.476   0.030  0.00  0.00    -0.185 NA
ATOM      6  N2  <0> d          -2.507   3.598   0.045  0.00  0.00    -0.261 N 
ATOM      7  H1  <0> d          -2.815   4.549   0.062  0.00  0.00     0.191 HD
ATOM      8  C5  <0> d          -1.202   3.188   0.030  0.00  0.00     0.155 A 
ATOM      9  N3  <0> d          -0.041   3.831   0.023  0.00  0.00    -0.241 NA
ATOM     10  C6  <0> d           1.104   3.183   0.009  0.00  0.00     0.004 A 
ATOM     11  H2  <0> d           2.106   1.287  -0.011  0.00  0.00     0.085 H 
ATOM     12  H3  <0> d           0.002  -0.004   0.002  0.00  0.00     0.085 H 
ATOM     13  H4  <0> d          -3.007   0.376   0.018  0.00  0.00     0.118 H 
ATOM     14  H5  <0> d           2.027   3.743   0.003  0.00  0.00     0.114 H 
ENDROOT
TORSDOF 0
