REMARK  2 active torsions:
REMARK  status: ('A' for Active; 'I' for Inactive)
REMARK    1  A    between atoms: C4_5  and  O1_7 
REMARK    2  A    between atoms: O1_7  and  C6_8 
ROOT
ATOM      1  C6  <0> d           1.364   5.765   0.021  0.00  0.00     0.105 C 
ATOM      2  C7  <0> d           1.213   7.229   0.031  0.00  0.00     0.085 C 
ATOM      3  N2  <0> d           1.097   8.359   0.038  0.00  0.00    -0.195 NA
ATOM      4  H5  <0> d           1.920   5.451   0.904  0.00  0.00     0.098 H 
ATOM      5  H6  <0> d           1.904   5.461  -0.876  0.00  0.00     0.098 H 
ENDROOT
BRANCH   1   6
ATOM      6  O1  <0> d           0.072   5.153   0.030  0.00  0.00    -0.320 OA
BRANCH   6   7
ATOM      7  C4  <0> d           0.033   3.797   0.022  0.00  0.00     0.164 A 
ATOM      8  N1  <0> d           1.162   3.109   0.008  0.00  0.00    -0.237 NA
ATOM      9  C3  <0> d           1.169   1.790   0.001  0.00  0.00     0.005 A 
ATOM     10  C2  <0> d          -0.013   1.076   0.008  0.00  0.00    -0.066 A 
ATOM     11  H3  <0> d           2.111   1.261  -0.012  0.00  0.00     0.114 H 
ATOM     12  C1  <0> d          -1.220   1.761   0.017  0.00  0.00    -0.077 A 
ATOM     13  H2  <0> d           0.002  -0.004   0.002  0.00  0.00     0.085 H 
ATOM     14  C5  <0> d          -1.194   3.144   0.030  0.00  0.00    -0.032 A 
ATOM     15  H1  <0> d          -2.158   1.226   0.018  0.00  0.00     0.083 H 
ATOM     16  H4  <0> d          -2.114   3.709   0.042  0.00  0.00     0.090 H 
ENDBRANCH   6   7
ENDBRANCH   1   6
TORSDOF 2
