REMARK  1 active torsions:
REMARK  status: ('A' for Active; 'I' for Inactive)
REMARK    1  A    between atoms: C1_1  and  C2_2 
ROOT
ATOM      1  C2  <0> d          -2.223   1.924  -0.587  0.00  0.00     0.145 C 
ATOM      2  C3  <0> d          -0.833   1.634  -1.185  0.00  0.00    -0.022 C 
ATOM      3  C4  <0> d          -0.013   1.086   0.008  0.00  0.00    -0.042 C 
ATOM      4  C5  <0> d          -0.810   1.621   1.224  0.00  0.00     0.022 C 
ATOM      5  O1  <0> d          -2.186   1.524   0.793  0.00  0.00    -0.366 OA
ATOM      6  C6  <0> d          -2.520   3.362  -0.687  0.00  0.00     0.097 C 
ATOM      7  N1  <0> d          -2.749   4.472  -0.764  0.00  0.00    -0.194 NA
ATOM      8  H4  <0> d          -0.383   2.550  -1.568  0.00  0.00     0.039 H 
ATOM      9  H5  <0> d          -0.903   0.886  -1.975  0.00  0.00     0.039 H 
ATOM     10  H6  <0> d           0.002  -0.004   0.002  0.00  0.00     0.036 H 
ATOM     11  H7  <0> d           1.001   1.487   0.001  0.00  0.00     0.036 H 
ATOM     12  H8  <0> d          -0.637   0.998   2.101  0.00  0.00     0.074 H 
ATOM     13  H9  <0> d          -0.545   2.658   1.431  0.00  0.00     0.074 H 
ENDROOT
BRANCH   1  14
ATOM     14  C1  <0> d          -3.289   1.120  -1.334  0.00  0.00    -0.035 C 
ATOM     15  H1  <0> d          -3.072   0.056  -1.241  0.00  0.00     0.033 H 
ATOM     16  H2  <0> d          -4.269   1.330  -0.905  0.00  0.00     0.033 H 
ATOM     17  H3  <0> d          -3.284   1.401  -2.387  0.00  0.00     0.033 H 
ENDBRANCH   1  14
TORSDOF 1
