REMARK  2 active torsions:
REMARK  status: ('A' for Active; 'I' for Inactive)
REMARK    1  A    between atoms: C6_6  and  C11_11 
REMARK    2  A    between atoms: C11_11  and  O1_12 
ROOT
ATOM      1  C1  <0> d          -0.013   1.076   0.008  0.00  0.00    -0.082 A 
ATOM      2  C2  <0> d          -1.235   1.746   0.017  0.00  0.00    -0.082 A 
ATOM      3  C3  <0> d          -1.288   3.106   0.030  0.00  0.00    -0.072 A 
ATOM      4  C4  <0> d          -0.096   3.849   0.023  0.00  0.00    -0.025 A 
ATOM      5  C5  <0> d          -0.111   5.254   0.030  0.00  0.00    -0.064 A 
ATOM      6  C6  <0> d           1.064   5.940   0.022  0.00  0.00    -0.034 A 
ATOM      7  C7  <0> d           2.286   5.270   0.008  0.00  0.00    -0.074 A 
ATOM      8  C8  <0> d           2.340   3.910  -0.000  0.00  0.00    -0.072 A 
ATOM      9  C9  <0> d           1.147   3.167   0.008  0.00  0.00    -0.026 A 
ATOM     10  C10 <0> d           1.163   1.762   0.000  0.00  0.00    -0.072 A 
ATOM     11  H1  <0> d           0.002  -0.004   0.002  0.00  0.00     0.083 H 
ATOM     12  H2  <0> d          -2.153   1.177   0.019  0.00  0.00     0.083 H 
ATOM     13  H3  <0> d          -2.243   3.611   0.041  0.00  0.00     0.084 H 
ATOM     14  H4  <0> d          -1.050   5.786   0.042  0.00  0.00     0.085 H 
ATOM     15  H5  <0> d           3.204   5.839   0.003  0.00  0.00     0.084 H 
ATOM     16  H6  <0> d           3.294   3.405  -0.012  0.00  0.00     0.084 H 
ATOM     17  H7  <0> d           2.102   1.230  -0.011  0.00  0.00     0.084 H 
ENDROOT
BRANCH   6  18
ATOM     18  C11 <0> d           1.044   7.447   0.030  0.00  0.00     0.040 C 
ATOM     19  H8  <0> d           1.924   7.825  -0.490  0.00  0.00     0.081 H 
ATOM     20  H9  <0> d           0.144   7.801  -0.474  0.00  0.00     0.081 H 
BRANCH  18  21
ATOM     21  O1  <0> d           1.050   7.917   1.380  0.00  0.00    -0.396 OA
ATOM     22  H10 <0> d           1.038   8.880   1.461  0.00  0.00     0.209 HD
ENDBRANCH  18  21
ENDBRANCH   6  18
TORSDOF 2
