REMARK  5 active torsions:
REMARK  status: ('A' for Active; 'I' for Inactive)
REMARK    1  A    between atoms: C1_1  and  C2_2 
REMARK    2  A    between atoms: C2_2  and  C3_3 
REMARK    3  A    between atoms: C3_3  and  N1_4 
REMARK    4  A    between atoms: N1_4  and  C4_5 
REMARK    5  A    between atoms: C7_8  and  N2_11 
ROOT
ATOM      1  C4  <0> d           1.214  -0.682  -0.013  0.00  0.00     0.028 A 
ATOM      2  C5  <0> d           0.002  -0.004   0.002  0.00  0.00    -0.055 A 
ATOM      3  C6  <0> d          -0.017   1.377   0.010  0.00  0.00    -0.056 A 
ATOM      4  C7  <0> d           1.176   2.087   0.002  0.00  0.00     0.025 A 
ATOM      5  C8  <0> d           2.388   1.409  -0.013  0.00  0.00    -0.056 A 
ATOM      6  C9  <0> d           2.407   0.029  -0.021  0.00  0.00    -0.055 A 
ATOM      7  H9  <0> d          -0.926  -0.557   0.008  0.00  0.00     0.087 H 
ATOM      8  H10 <0> d          -0.959   1.904   0.017  0.00  0.00     0.087 H 
ATOM      9  H11 <0> d           3.316   1.962  -0.019  0.00  0.00     0.087 H 
ATOM     10  H12 <0> d           3.349  -0.498  -0.032  0.00  0.00     0.087 H 
ENDROOT
BRANCH   1  11
ATOM     11  N1  <0> d           1.233  -2.082  -0.021  0.00  0.00    -0.390 N 
ATOM     12  H8  <0> d           0.288  -2.645  -0.014  0.00  0.00     0.159 HD
BRANCH  11  13
ATOM     13  C3  <0> d           2.511  -2.797  -0.037  0.00  0.00    -0.008 C 
ATOM     14  H6  <0> d           3.093  -2.528   0.857  0.00  0.00     0.063 H 
ATOM     15  H7  <0> d           3.076  -2.519  -0.939  0.00  0.00     0.063 H 
BRANCH  13  16
ATOM     16  C2  <0> d           2.252  -4.305  -0.042  0.00  0.00    -0.054 C 
ATOM     17  H4  <0> d           1.670  -4.574  -0.935  0.00  0.00     0.034 H 
ATOM     18  H5  <0> d           1.688  -4.583   0.861  0.00  0.00     0.034 H 
BRANCH  16  19
ATOM     19  C1  <0> d           3.587  -5.052  -0.058  0.00  0.00    -0.075 C 
ATOM     20  H1  <0> d           3.401  -6.136  -0.062  0.00  0.00     0.027 H 
ATOM     21  H2  <0> d           4.169  -4.783   0.836  0.00  0.00     0.027 H 
ATOM     22  H3  <0> d           4.152  -4.774  -0.961  0.00  0.00     0.027 H 
ENDBRANCH  16  19
ENDBRANCH  13  16
ENDBRANCH  11  13
ENDBRANCH   1  11
BRANCH   4  23
ATOM     23  N2  <0> d           1.157   3.487   0.009  0.00  0.00    -0.399 N 
ATOM     24  H13 <0> d           2.102   4.050   0.003  0.00  0.00     0.156 HD
ATOM     25  H14 <0> d           0.197   4.024   0.021  0.00  0.00     0.156 HD
ENDBRANCH   4  23
TORSDOF 5
