REMARK  2 active torsions:
REMARK  status: ('A' for Active; 'I' for Inactive)
REMARK    1  A    between atoms: C1_1  and  C2_2 
REMARK    2  A    between atoms: C2_2  and  C8_8 
REMARK       I    between atoms: C8_8  and  N1_10 
ROOT
ATOM      1  C2  <0> d          -1.331   2.079   0.020  0.00  0.00     0.037 C 
ATOM      2  C3  <0> d          -2.135   1.706  -1.228  0.00  0.00    -0.050 C 
ATOM      3  C4  <0> d          -1.343   2.093  -2.479  0.00  0.00    -0.064 C 
ATOM      4  C5  <0> d          -1.084   3.601  -2.472  0.00  0.00    -0.065 C 
ATOM      5  C6  <0> d          -0.281   3.974  -1.224  0.00  0.00    -0.064 C 
ATOM      6  C7  <0> d          -1.072   3.587   0.027  0.00  0.00    -0.050 C 
ATOM      7  H4  <0> d          -2.319   0.631  -1.233  0.00  0.00     0.034 H 
ATOM      8  H5  <0> d          -3.086   2.238  -1.220  0.00  0.00     0.034 H 
ATOM      9  H6  <0> d          -1.915   1.827  -3.368  0.00  0.00     0.033 H 
ATOM     10  H7  <0> d          -0.392   1.561  -2.486  0.00  0.00     0.033 H 
ATOM     11  H8  <0> d          -2.035   4.133  -2.464  0.00  0.00     0.033 H 
ATOM     12  H9  <0> d          -0.520   3.877  -3.363  0.00  0.00     0.033 H 
ATOM     13  H10 <0> d          -0.096   5.049  -1.219  0.00  0.00     0.033 H 
ATOM     14  H11 <0> d           0.670   3.442  -1.232  0.00  0.00     0.033 H 
ATOM     15  H12 <0> d          -2.023   4.119   0.034  0.00  0.00     0.034 H 
ATOM     16  H13 <0> d          -0.500   3.853   0.915  0.00  0.00     0.034 H 
ENDROOT
BRANCH   1  17
ATOM     17  C1  <0> d          -2.123   1.692   1.271  0.00  0.00    -0.061 C 
ATOM     18  H1  <0> d          -1.550   1.958   2.159  0.00  0.00     0.029 H 
ATOM     19  H2  <0> d          -3.074   2.224   1.278  0.00  0.00     0.029 H 
ATOM     20  H3  <0> d          -2.307   0.618   1.266  0.00  0.00     0.029 H 
ENDBRANCH   1  17
BRANCH   1  21
ATOM     21  C8  <0> d          -0.016   1.344   0.009  0.00  0.00     0.223 C 
ATOM     22  O1  <0> d           1.026   1.964   0.003  0.00  0.00    -0.273 OA
ATOM     23  N1  <0> d           0.002  -0.004   0.002  0.00  0.00    -0.369 N 
ATOM     24  H14 <0> d           0.849  -0.478  -0.009  0.00  0.00     0.159 HD
ATOM     25  H15 <0> d          -0.831  -0.500   0.007  0.00  0.00     0.159 HD
ENDBRANCH   1  21
TORSDOF 2
