REMARK  3 active torsions:
REMARK  status: ('A' for Active; 'I' for Inactive)
REMARK    1  A    between atoms: C1_1  and  O1_2 
REMARK    2  A    between atoms: O1_2  and  C2_3 
REMARK    3  A    between atoms: C2_3  and  C3_5 
ROOT
ATOM      1  C3  <0> d           2.144   0.675  -0.664  0.00  0.00     0.108 C 
ATOM      2  H1  <0> d           2.242   0.830  -1.739  0.00  0.00     0.070 H 
ATOM      3  C4  <0> d           1.465   1.896  -0.002  0.00  0.00    -0.030 C 
ATOM      4  C5  <0> d          -0.018   1.463   0.010  0.00  0.00    -0.004 C 
ATOM      5  N1  <0> d           0.002  -0.004   0.002  0.00  0.00    -0.360 N 
ATOM      6  C6  <0> d           1.203  -0.474  -0.379  0.00  0.00     0.231 C 
ATOM      7  O3  <0> d           1.489  -1.648  -0.478  0.00  0.00    -0.273 OA
ATOM      8  H5  <0> d           1.605   2.794  -0.603  0.00  0.00     0.037 H 
ATOM      9  H6  <0> d           1.836   2.046   1.012  0.00  0.00     0.037 H 
ATOM     10  H7  <0> d          -0.527   1.839  -0.877  0.00  0.00     0.064 H 
ATOM     11  H8  <0> d          -0.510   1.829   0.911  0.00  0.00     0.064 H 
ATOM     12  H9  <0> d          -0.754  -0.563   0.240  0.00  0.00     0.162 HD
ENDROOT
BRANCH   1  13
ATOM     13  C2  <0> d           3.494   0.418  -0.045  0.00  0.00     0.271 C 
ATOM     14  O2  <0> d           3.925   1.169   0.797  0.00  0.00    -0.264 OA
BRANCH  13  15
ATOM     15  O1  <0> d           4.216  -0.646  -0.429  0.00  0.00    -0.326 OA
BRANCH  15  16
ATOM     16  C1  <0> d           5.507  -0.832   0.211  0.00  0.00     0.013 C 
ATOM     17  H2  <0> d           6.137   0.036   0.016  0.00  0.00     0.067 H 
ATOM     18  H3  <0> d           5.367  -0.945   1.286  0.00  0.00     0.067 H 
ATOM     19  H4  <0> d           5.986  -1.726  -0.190  0.00  0.00     0.067 H 
ENDBRANCH  15  16
ENDBRANCH  13  15
ENDBRANCH   1  13
TORSDOF 3
