REMARK  4 active torsions:
REMARK  status: ('A' for Active; 'I' for Inactive)
REMARK    1  A    between atoms: C1_1  and  C2_2 
REMARK    2  A    between atoms: C2_2  and  C3_3 
REMARK    3  A    between atoms: C2_2  and  C4_4 
REMARK    4  A    between atoms: C4_4  and  C8_10 
ROOT
ATOM      1  C4  <0> d           0.718  -0.497  -1.257  0.00  0.00    -0.017 C 
ATOM      2  C5  <0> d           2.223  -0.143  -1.212  0.00  0.00     0.018 C 
ATOM      3  C6  <0> d           2.875  -1.372  -0.617  0.00  0.00     0.218 C 
ATOM      4  O1  <0> d           3.996  -1.408  -0.155  0.00  0.00    -0.274 OA
ATOM      5  N1  <0> d           2.032  -2.417  -0.675  0.00  0.00    -0.360 N 
ATOM      6  C7  <0> d           0.759  -2.041  -1.300  0.00  0.00     0.003 C 
ATOM      7  H8  <0> d           2.601   0.041  -2.218  0.00  0.00     0.048 H 
ATOM      8  H9  <0> d           2.392   0.725  -0.575  0.00  0.00     0.048 H 
ATOM      9  H10 <0> d           2.239  -3.306  -0.345  0.00  0.00     0.162 HD
ATOM     10  H11 <0> d          -0.076  -2.457  -0.736  0.00  0.00     0.065 H 
ATOM     11  H12 <0> d           0.728  -2.390  -2.333  0.00  0.00     0.065 H 
ENDROOT
BRANCH   1  12
ATOM     12  C2  <0> d           0.002  -0.004   0.002  0.00  0.00    -0.052 C 
ATOM     13  H4  <0> d           0.529  -0.365   0.885  0.00  0.00     0.040 H 
BRANCH  12  14
ATOM     14  C1  <0> d          -0.019   1.526   0.010  0.00  0.00    -0.072 C 
ATOM     15  H1  <0> d           1.004   1.903   0.003  0.00  0.00     0.028 H 
ATOM     16  H2  <0> d          -0.546   1.887  -0.873  0.00  0.00     0.028 H 
ATOM     17  H3  <0> d          -0.529   1.877   0.907  0.00  0.00     0.028 H 
ENDBRANCH  12  14
BRANCH  12  18
ATOM     18  C3  <0> d          -1.433  -0.534   0.013  0.00  0.00    -0.072 C 
ATOM     19  H5  <0> d          -1.960  -0.173  -0.870  0.00  0.00     0.028 H 
ATOM     20  H6  <0> d          -1.419  -1.623   0.007  0.00  0.00     0.028 H 
ATOM     21  H7  <0> d          -1.944  -0.182   0.910  0.00  0.00     0.028 H 
ENDBRANCH  12  18
ENDBRANCH   1  12
BRANCH   1  22
ATOM     22  C8  <0> d           0.059   0.069  -2.516  0.00  0.00    -0.067 C 
ATOM     23  H13 <0> d           0.103   1.157  -2.491  0.00  0.00     0.028 H 
ATOM     24  H14 <0> d           0.586  -0.296  -3.397  0.00  0.00     0.028 H 
ATOM     25  H15 <0> d          -0.982  -0.252  -2.556  0.00  0.00     0.028 H 
ENDBRANCH   1  22
TORSDOF 4
