REMARK  4 active torsions:
REMARK  status: ('A' for Active; 'I' for Inactive)
REMARK    1  A    between atoms: C1_1  and  C2_2 
REMARK    2  A    between atoms: C2_2  and  C3_3 
REMARK    3  A    between atoms: C2_2  and  O1_4 
REMARK    4  A    between atoms: O1_4  and  C4_5 
ROOT
ATOM      1  C4  <0> d          -1.499  -1.757  -0.646  0.00  0.00     0.039 C 
ATOM      2  C5  <0> d          -1.817  -1.523  -2.124  0.00  0.00    -0.041 C 
ATOM      3  C6  <0> d          -1.989  -2.870  -2.828  0.00  0.00    -0.063 C 
ATOM      4  C7  <0> d          -3.136  -3.644  -2.176  0.00  0.00    -0.065 C 
ATOM      5  C8  <0> d          -2.817  -3.879  -0.698  0.00  0.00    -0.063 C 
ATOM      6  C9  <0> d          -2.646  -2.531   0.007  0.00  0.00    -0.041 C 
ATOM      7  H8  <0> d          -0.577  -2.332  -0.560  0.00  0.00     0.083 H 
ATOM      8  H9  <0> d          -2.740  -0.948  -2.210  0.00  0.00     0.036 H 
ATOM      9  H10 <0> d          -1.000  -0.971  -2.589  0.00  0.00     0.036 H 
ATOM     10  H11 <0> d          -2.216  -2.703  -3.881  0.00  0.00     0.033 H 
ATOM     11  H12 <0> d          -1.067  -3.445  -2.742  0.00  0.00     0.033 H 
ATOM     12  H13 <0> d          -4.058  -3.069  -2.262  0.00  0.00     0.033 H 
ATOM     13  H14 <0> d          -3.258  -4.604  -2.678  0.00  0.00     0.033 H 
ATOM     14  H15 <0> d          -3.635  -4.430  -0.233  0.00  0.00     0.033 H 
ATOM     15  H16 <0> d          -1.895  -4.454  -0.612  0.00  0.00     0.033 H 
ATOM     16  H17 <0> d          -2.419  -2.698   1.060  0.00  0.00     0.036 H 
ATOM     17  H18 <0> d          -3.568  -1.956  -0.079  0.00  0.00     0.036 H 
ENDROOT
BRANCH   1  18
ATOM     18  O1  <0> d          -1.339  -0.499   0.012  0.00  0.00    -0.381 OA
BRANCH  18  19
ATOM     19  C2  <0> d           0.002  -0.004   0.002  0.00  0.00     0.032 C 
ATOM     20  H4  <0> d           0.512  -0.356  -0.895  0.00  0.00     0.082 H 
BRANCH  19  21
ATOM     21  C1  <0> d          -0.019   1.526   0.010  0.00  0.00    -0.052 C 
ATOM     22  H1  <0> d           1.004   1.903   0.003  0.00  0.00     0.030 H 
ATOM     23  H2  <0> d          -0.546   1.887  -0.873  0.00  0.00     0.030 H 
ATOM     24  H3  <0> d          -0.529   1.877   0.907  0.00  0.00     0.030 H 
ENDBRANCH  19  21
BRANCH  19  25
ATOM     25  C3  <0> d           0.742  -0.511   1.242  0.00  0.00    -0.052 C 
ATOM     26  H5  <0> d           0.232  -0.159   2.138  0.00  0.00     0.030 H 
ATOM     27  H6  <0> d           0.757  -1.601   1.236  0.00  0.00     0.030 H 
ATOM     28  H7  <0> d           1.765  -0.134   1.234  0.00  0.00     0.030 H 
ENDBRANCH  19  25
ENDBRANCH  18  19
ENDBRANCH   1  18
TORSDOF 4
