REMARK  1 active torsions:
REMARK  status: ('A' for Active; 'I' for Inactive)
REMARK    1  A    between atoms: C3_3  and  O1_10 
ROOT
ATOM      1  C1  <0> d           0.002  -0.004   0.002  0.00  0.00    -0.079 A 
ATOM      2  C2  <0> d           1.203  -0.687  -0.013  0.00  0.00    -0.049 A 
ATOM      3  C3  <0> d           2.400   0.011  -0.021  0.00  0.00     0.088 A 
ATOM      4  C4  <0> d           2.388   1.413  -0.014  0.00  0.00     0.099 A 
ATOM      5  C5  <0> d           1.166   2.092   0.002  0.00  0.00     0.057 A 
ATOM      6  C6  <0> d          -0.017   1.380   0.010  0.00  0.00    -0.060 A 
ATOM      7 Cl1  <0> d           1.136   3.828   0.011  0.00  0.00    -0.083 Cl
ATOM      8  C7  <0> d           3.618   2.144  -0.021  0.00  0.00     0.104 C 
ATOM      9  N1  <0> d           4.595   2.725  -0.028  0.00  0.00    -0.191 NA
ATOM     10  H1  <0> d          -0.928  -0.553   0.008  0.00  0.00     0.083 H 
ATOM     11  H2  <0> d           1.209  -1.767  -0.019  0.00  0.00     0.087 H 
ATOM     12  H3  <0> d          -0.961   1.905   0.017  0.00  0.00     0.086 H 
ENDROOT
BRANCH   3  13
ATOM     13  O1  <0> d           3.580  -0.660  -0.036  0.00  0.00    -0.359 OA
ATOM     14  H4  <0> d           3.913  -0.850  -0.924  0.00  0.00     0.217 HD
ENDBRANCH   3  13
TORSDOF 1
