REMARK  1 active torsions:
REMARK  status: ('A' for Active; 'I' for Inactive)
REMARK    1  A    between atoms: C2_2  and  C3_3 
ROOT
ATOM      1  C1  <0> d          -3.399   4.532   0.057  0.00  0.00    -0.149 C 
ATOM      2  C2  <0> d          -2.401   3.913   0.044  0.00  0.00    -0.076 C 
ATOM      3  H1  <0> d          -4.291   5.086   0.068  0.00  0.00     0.166 H 
ENDROOT
BRANCH   2   4
ATOM      4  C3  <0> d          -1.185   3.158   0.029  0.00  0.00     0.034 A 
ATOM      5  C7  <0> d           0.051   3.804   0.021  0.00  0.00     0.020 A 
ATOM      6  N1  <0> d           1.170   3.110   0.007  0.00  0.00    -0.272 NA
ATOM      7  H5  <0> d           0.091   4.884   0.026  0.00  0.00     0.117 H 
ATOM      8  C6  <0> d           1.172   1.791   0.001  0.00  0.00     0.002 A 
ATOM      9  C5  <0> d          -0.013   1.076   0.008  0.00  0.00    -0.065 A 
ATOM     10  H4  <0> d           2.112   1.261  -0.011  0.00  0.00     0.114 H 
ATOM     11  C4  <0> d          -1.216   1.759   0.017  0.00  0.00    -0.062 A 
ATOM     12  H3  <0> d           0.002  -0.004   0.002  0.00  0.00     0.085 H 
ATOM     13  H2  <0> d          -2.155   1.226   0.019  0.00  0.00     0.085 H 
ENDBRANCH   2   4
TORSDOF 1
