REMARK  3 active torsions:
REMARK  status: ('A' for Active; 'I' for Inactive)
REMARK    1  A    between atoms: C1_1  and  C2_2 
REMARK    2  A    between atoms: C2_2  and  C3_3 
REMARK    3  A    between atoms: C3_3  and  N1_4 
ROOT
ATOM      1  N1  <0> d           0.738  -1.962  -1.265  0.00  0.00    -0.352 N 
ATOM      2  C4  <0> d           1.865  -2.634  -0.630  0.00  0.00    -0.002 C 
ATOM      3  C5  <0> d           1.512  -4.087  -0.311  0.00  0.00    -0.050 C 
ATOM      4  C6  <0> d           0.943  -4.742  -1.575  0.00  0.00    -0.056 C 
ATOM      5  C7  <0> d          -0.407  -4.093  -1.890  0.00  0.00     0.009 C 
ATOM      6  C8  <0> d          -0.279  -2.598  -1.848  0.00  0.00     0.219 C 
ATOM      7  O1  <0> d          -1.145  -1.933  -2.376  0.00  0.00    -0.273 OA
ATOM      8  H8  <0> d           2.723  -2.610  -1.302  0.00  0.00     0.064 H 
ATOM      9  H9  <0> d           2.121  -2.114   0.293  0.00  0.00     0.064 H 
ATOM     10  H10 <0> d           2.409  -4.620   0.005  0.00  0.00     0.035 H 
ATOM     11  H11 <0> d           0.767  -4.116   0.484  0.00  0.00     0.035 H 
ATOM     12  H12 <0> d           1.627  -4.588  -2.409  0.00  0.00     0.033 H 
ATOM     13  H13 <0> d           0.805  -5.810  -1.405  0.00  0.00     0.033 H 
ATOM     14  H14 <0> d          -0.736  -4.403  -2.882  0.00  0.00     0.047 H 
ATOM     15  H15 <0> d          -1.143  -4.411  -1.151  0.00  0.00     0.047 H 
ENDROOT
BRANCH   1  16
ATOM     16  C3  <0> d           0.718  -0.497  -1.257  0.00  0.00    -0.003 C 
ATOM     17  H6  <0> d           0.191  -0.136  -2.140  0.00  0.00     0.064 H 
ATOM     18  H7  <0> d           1.741  -0.120  -1.264  0.00  0.00     0.064 H 
BRANCH  16  19
ATOM     19  C2  <0> d           0.002  -0.004   0.002  0.00  0.00    -0.053 C 
ATOM     20  H4  <0> d           0.529  -0.365   0.885  0.00  0.00     0.034 H 
ATOM     21  H5  <0> d          -1.020  -0.381   0.010  0.00  0.00     0.034 H 
BRANCH  19  22
ATOM     22  C1  <0> d          -0.019   1.526   0.010  0.00  0.00    -0.075 C 
ATOM     23  H1  <0> d           1.004   1.903   0.003  0.00  0.00     0.027 H 
ATOM     24  H2  <0> d          -0.546   1.887  -0.873  0.00  0.00     0.027 H 
ATOM     25  H3  <0> d          -0.529   1.877   0.907  0.00  0.00     0.027 H 
ENDBRANCH  19  22
ENDBRANCH  16  19
ENDBRANCH   1  16
TORSDOF 3
