REMARK  4 active torsions:
REMARK  status: ('A' for Active; 'I' for Inactive)
REMARK    1  A    between atoms: C1_1  and  C2_2 
REMARK    2  A    between atoms: C4_4  and  C7_8 
REMARK    3  A    between atoms: C5_5  and  C6_7 
REMARK    4  A    between atoms: C7_8  and  C8_10 
ROOT
ATOM      1  C2  <0> d           1.126   1.794   0.001  0.00  0.00    -0.020 A 
ATOM      2  C3  <0> d          -0.013   1.076   0.008  0.00  0.00    -0.056 A 
ATOM      3  C4  <0> d          -1.254   1.812   0.018  0.00  0.00     0.023 A 
ATOM      4  C5  <0> d          -1.162   3.193   0.029  0.00  0.00    -0.007 A 
ATOM      5  S1  <0> d           0.546   3.477   0.015  0.00  0.00    -0.099 SA
ATOM      6  H4  <0> d           0.002  -0.004   0.002  0.00  0.00     0.086 H 
ENDROOT
BRANCH   3   7
ATOM      7  C7  <0> d          -2.549   1.130   0.020  0.00  0.00     0.156 C 
ATOM      8  O1  <0> d          -3.576   1.777   0.028  0.00  0.00    -0.293 OA
BRANCH   7   9
ATOM      9  C8  <0> d          -2.608  -0.376   0.013  0.00  0.00    -0.017 C 
ATOM     10  H8  <0> d          -1.679  -0.746   0.007  0.00  0.00     0.038 H 
ATOM     11  H9  <0> d          -3.131  -0.723   0.903  0.00  0.00     0.038 H 
ATOM     12  H10 <0> d          -3.139  -0.714  -0.877  0.00  0.00     0.038 H 
ENDBRANCH   7   9
ENDBRANCH   3   7
BRANCH   4  13
ATOM     13  C6  <0> d          -2.279   4.205   0.045  0.00  0.00    -0.044 C 
ATOM     14  H5  <0> d          -1.859   5.210   0.046  0.00  0.00     0.034 H 
ATOM     15  H6  <0> d          -2.901   4.073  -0.840  0.00  0.00     0.034 H 
ATOM     16  H7  <0> d          -2.885   4.063   0.940  0.00  0.00     0.034 H 
ENDBRANCH   4  13
BRANCH   1  17
ATOM     17  C1  <0> d           2.548   1.294  -0.015  0.00  0.00    -0.045 C 
ATOM     18  H1  <0> d           2.881   1.179  -1.047  0.00  0.00     0.034 H 
ATOM     19  H2  <0> d           3.191   2.010   0.496  0.00  0.00     0.034 H 
ATOM     20  H3  <0> d           2.600   0.331   0.493  0.00  0.00     0.034 H 
ENDBRANCH   1  17
TORSDOF 4
