REMARK  3 active torsions:
REMARK  status: ('A' for Active; 'I' for Inactive)
REMARK    1  A    between atoms: C3_4  and  C4_6 
REMARK    2  A    between atoms: C4_6  and  C5_7 
REMARK    3  A    between atoms: C5_7  and  C6_8 
ROOT
ATOM      1  C4  <0> d          -0.013   1.086   0.008  0.00  0.00    -0.010 C 
ATOM      2  H3  <0> d           0.002  -0.004   0.002  0.00  0.00     0.043 H 
ATOM      3  H4  <0> d           1.010   1.463   0.000  0.00  0.00     0.043 H 
ENDROOT
BRANCH   1   4
ATOM      4  C3  <0> d          -0.718   1.572   1.248  0.00  0.00     0.075 A 
ATOM      5  S1  <0> d          -0.464   3.037   2.144  0.00  0.00    -0.085 SA
ATOM      6  C2  <0> d          -1.706   2.759   3.399  0.00  0.00    -0.026 A 
ATOM      7  C1  <0> d          -2.197   1.558   3.001  0.00  0.00     0.009 A 
ATOM      8  H2  <0> d          -1.987   3.376   4.240  0.00  0.00     0.097 H 
ATOM      9  N1  <0> d          -1.687   0.998   1.924  0.00  0.00    -0.258 NA
ATOM     10  H1  <0> d          -2.990   1.075   3.553  0.00  0.00     0.115 H 
ENDBRANCH   1   4
BRANCH   1  11
ATOM     11  C5  <0> d          -0.753   1.593  -1.232  0.00  0.00     0.021 C 
ATOM     12  H5  <0> d          -1.775   1.215  -1.224  0.00  0.00     0.049 H 
ATOM     13  H6  <0> d          -0.767   2.683  -1.226  0.00  0.00     0.049 H 
BRANCH  11  14
ATOM     14  C6  <0> d          -0.047   1.107  -2.471  0.00  0.00     0.172 C 
ATOM     15  O1  <0> d           0.945   0.425  -2.374  0.00  0.00    -0.648 OA
ATOM     16  O2  <0> d          -0.522   1.431  -3.684  0.00  0.00    -0.648 OA
ENDBRANCH  11  14
ENDBRANCH   1  11
TORSDOF 3
