REMARK  4 active torsions:
REMARK  status: ('A' for Active; 'I' for Inactive)
REMARK    1  A    between atoms: C1_1  and  C2_2 
REMARK    2  A    between atoms: C1_1  and  O3_7 
REMARK    3  A    between atoms: C2_2  and  C3_4 
REMARK    4  A    between atoms: C2_2  and  O2_6 
ROOT
ATOM      1  C2  <0> d          -0.729   1.579   1.267  0.00  0.00     0.139 C 
ATOM      2  H1  <0> d          -0.822   2.665   1.230  0.00  0.00     0.103 H 
ENDROOT
BRANCH   1   3
ATOM      3  C1  <0> d          -0.013   1.086   0.008  0.00  0.00     0.050 C 
ATOM      4  H2  <0> d           0.002  -0.004   0.002  0.00  0.00     0.078 H 
ATOM      5  H3  <0> d           1.010   1.463   0.000  0.00  0.00     0.078 H 
BRANCH   3   6
ATOM      6  O3  <0> d          -0.704   1.559  -1.150  0.00  0.00    -0.398 OA
ATOM      7  H5  <0> d          -0.304   1.284  -1.986  0.00  0.00     0.209 HD
ENDBRANCH   3   6
ENDBRANCH   1   3
BRANCH   1   8
ATOM      8  C3  <0> d           0.067   1.185   2.485  0.00  0.00     0.205 C 
ATOM      9  O1  <0> d          -0.396   0.401   3.280  0.00  0.00    -0.646 OA
ATOM     10  O4  <0> d           1.288   1.703   2.685  0.00  0.00    -0.646 OA
ENDBRANCH   1   8
BRANCH   1  11
ATOM     11  O2  <0> d          -2.030   0.991   1.336  0.00  0.00    -0.383 OA
ATOM     12  H4  <0> d          -2.023   0.025   1.372  0.00  0.00     0.210 HD
ENDBRANCH   1  11
TORSDOF 4
