REMARK  2 active torsions:
REMARK  status: ('A' for Active; 'I' for Inactive)
REMARK    1  A    between atoms: C1_1  and  C2_2 
REMARK    2  A    between atoms: C7_7  and  O1_8 
ROOT
ATOM      1  C2  <0> d           0.002  -0.004   0.002  0.00  0.00    -0.026 A 
ATOM      2  C3  <0> d           0.006  -0.688  -1.199  0.00  0.00    -0.034 A 
ATOM      3  C4  <0> d           0.025  -2.072  -1.208  0.00  0.00     0.155 A 
ATOM      4  C5  <0> d           0.040  -2.774  -0.012  0.00  0.00     0.157 A 
ATOM      5  C6  <0> d           0.036  -2.091   1.191  0.00  0.00    -0.010 A 
ATOM      6  C7  <0> d           0.023  -0.704   1.199  0.00  0.00     0.074 A 
ATOM      7  F1  <0> d           0.058  -4.125  -0.021  0.00  0.00    -0.203 F 
ATOM      8  F2  <0> d           0.028  -2.739  -2.382  0.00  0.00    -0.203 F 
ATOM      9  H4  <0> d          -0.006  -0.143  -2.131  0.00  0.00     0.089 H 
ATOM     10  H5  <0> d           0.048  -2.637   2.123  0.00  0.00     0.092 H 
ENDROOT
BRANCH   1  11
ATOM     11  C1  <0> d          -0.018   1.503   0.010  0.00  0.00    -0.049 C 
ATOM     12  H1  <0> d           1.004   1.880   0.003  0.00  0.00     0.033 H 
ATOM     13  H2  <0> d          -0.545   1.864  -0.873  0.00  0.00     0.033 H 
ATOM     14  H3  <0> d          -0.529   1.854   0.907  0.00  0.00     0.033 H 
ENDBRANCH   1  11
BRANCH   6  15
ATOM     15  O1  <0> d           0.025  -0.031   2.380  0.00  0.00    -0.360 OA
ATOM     16  H6  <0> d          -0.858   0.152   2.731  0.00  0.00     0.217 HD
ENDBRANCH   6  15
TORSDOF 2
