REMARK  4 active torsions:
REMARK  status: ('A' for Active; 'I' for Inactive)
REMARK    1  A    between atoms: C1_1  and  N1_2 
REMARK       I    between atoms: N1_2  and  C2_3 
REMARK    2  A    between atoms: C2_3  and  C3_5 
REMARK    3  A    between atoms: C4_6  and  N4_11 
REMARK    4  A    between atoms: N3_9  and  C6_10 
ROOT
ATOM      1  C3  <0> d          -2.386   0.782   0.006  0.00  0.00     0.147 A 
ATOM      2  C4  <0> d          -3.710   1.210  -0.042  0.00  0.00     0.079 A 
ATOM      3  C5  <0> d          -4.476   0.034  -0.032  0.00  0.00     0.049 A 
ATOM      4  N2  <0> d          -3.655  -0.982   0.017  0.00  0.00    -0.182 NA
ATOM      5  N3  <0> d          -2.432  -0.590   0.034  0.00  0.00    -0.267 N 
ATOM      6  H5  <0> d          -5.555  -0.022  -0.060  0.00  0.00     0.121 H 
ENDROOT
BRANCH   1   7
ATOM      7  C2  <0> d          -1.187   1.624   0.017  0.00  0.00     0.271 C 
ATOM      8  N1  <0> d          -0.552   1.876   1.178  0.00  0.00    -0.360 N 
ATOM      9  H4  <0> d          -0.927   1.560   2.015  0.00  0.00     0.162 HD
ATOM     10  O1  <0> d          -0.765   2.096  -1.023  0.00  0.00    -0.266 OA
BRANCH   8  11
ATOM     11  C1  <0> d           0.709   2.622   1.176  0.00  0.00    -0.018 C 
ATOM     12  H1  <0> d           0.545   3.611   0.750  0.00  0.00     0.056 H 
ATOM     13  H2  <0> d           1.073   2.723   2.199  0.00  0.00     0.056 H 
ATOM     14  H3  <0> d           1.447   2.087   0.579  0.00  0.00     0.056 H 
ENDBRANCH   8  11
ENDBRANCH   1   7
BRANCH   5  15
ATOM     15  C6  <0> d          -1.264  -1.473   0.082  0.00  0.00     0.003 C 
ATOM     16  H6  <0> d          -1.053  -1.741   1.117  0.00  0.00     0.059 H 
ATOM     17  H7  <0> d          -1.468  -2.376  -0.493  0.00  0.00     0.059 H 
ATOM     18  H8  <0> d          -0.402  -0.959  -0.343  0.00  0.00     0.059 H 
ENDBRANCH   5  15
BRANCH   2  19
ATOM     19  N4  <0> d          -4.174   2.523  -0.089  0.00  0.00    -0.396 N 
ATOM     20  H9  <0> d          -3.544   3.261  -0.091  0.00  0.00     0.156 HD
ATOM     21  H10 <0> d          -5.127   2.700  -0.120  0.00  0.00     0.156 HD
ENDBRANCH   2  19
TORSDOF 4
