REMARK  3 active torsions:
REMARK  status: ('A' for Active; 'I' for Inactive)
REMARK    1  A    between atoms: C6_6  and  C7_7 
REMARK    2  A    between atoms: C7_7  and  C8_8 
REMARK    3  A    between atoms: C8_8  and  O1_9 
ROOT
ATOM      1  C1  <0> d           1.209  -0.679  -0.013  0.00  0.00    -0.074 A 
ATOM      2  C2  <0> d           0.002  -0.004   0.002  0.00  0.00    -0.042 A 
ATOM      3  C3  <0> d          -0.017   1.379   0.010  0.00  0.00     0.154 A 
ATOM      4  C4  <0> d           1.176   2.088   0.002  0.00  0.00     0.155 A 
ATOM      5  C5  <0> d           2.382   1.409  -0.014  0.00  0.00    -0.036 A 
ATOM      6  C6  <0> d           2.397   0.027  -0.021  0.00  0.00    -0.053 A 
ATOM      7  F1  <0> d           1.160   3.439   0.009  0.00  0.00    -0.203 F 
ATOM      8  F2  <0> d          -1.195   2.040   0.019  0.00  0.00    -0.203 F 
ATOM      9  H1  <0> d           1.223  -1.759  -0.019  0.00  0.00     0.084 H 
ATOM     10  H2  <0> d          -0.926  -0.557   0.008  0.00  0.00     0.088 H 
ATOM     11  H3  <0> d           3.311   1.960  -0.020  0.00  0.00     0.089 H 
ENDROOT
BRANCH   6  12
ATOM     12  C7  <0> d           3.711  -0.711  -0.038  0.00  0.00    -0.021 C 
ATOM     13  H4  <0> d           4.468  -0.116   0.472  0.00  0.00     0.043 H 
ATOM     14  H5  <0> d           3.596  -1.668   0.472  0.00  0.00     0.043 H 
BRANCH  12  15
ATOM     15  C8  <0> d           4.141  -0.954  -1.486  0.00  0.00     0.020 C 
ATOM     16  H6  <0> d           3.384  -1.549  -1.995  0.00  0.00     0.074 H 
ATOM     17  H7  <0> d           4.255   0.003  -1.996  0.00  0.00     0.074 H 
BRANCH  15  18
ATOM     18  O1  <0> d           5.387  -1.654  -1.501  0.00  0.00    -0.401 OA
ATOM     19  H8  <0> d           5.721  -1.842  -2.389  0.00  0.00     0.209 HD
ENDBRANCH  15  18
ENDBRANCH  12  15
ENDBRANCH   6  12
TORSDOF 3
