REMARK  1 active torsions:
REMARK  status: ('A' for Active; 'I' for Inactive)
REMARK    1  A    between atoms: C1_1  and  C2_2 
ROOT
ATOM      1  C2  <0> d           1.159   2.052   0.002  0.00  0.00    -0.020 A 
ATOM      2  C3  <0> d          -0.017   1.379   0.010  0.00  0.00    -0.069 A 
ATOM      3  C4  <0> d           0.002  -0.004   0.002  0.00  0.00    -0.054 A 
ATOM      4  C5  <0> d           1.198  -0.645  -0.013  0.00  0.00     0.074 A 
ATOM      5  S1  <0> d           2.348   0.720  -0.017  0.00  0.00    -0.083 SA
ATOM      6 Cl1  <0> d           1.524  -2.350  -0.026  0.00  0.00    -0.076 Cl
ATOM      7  H4  <0> d          -0.955   1.914   0.017  0.00  0.00     0.085 H 
ATOM      8  H5  <0> d          -0.921  -0.565   0.008  0.00  0.00     0.086 H 
ENDROOT
BRANCH   1   9
ATOM      9  C1  <0> d           1.401   3.539   0.008  0.00  0.00    -0.045 C 
ATOM     10  H1  <0> d           1.469   3.893   1.037  0.00  0.00     0.034 H 
ATOM     11  H2  <0> d           2.332   3.758  -0.514  0.00  0.00     0.034 H 
ATOM     12  H3  <0> d           0.576   4.043  -0.496  0.00  0.00     0.034 H 
ENDBRANCH   1   9
TORSDOF 1
