REMARK  5 active torsions:
REMARK  status: ('A' for Active; 'I' for Inactive)
REMARK    1  A    between atoms: C4_4  and  N1_7 
REMARK    2  A    between atoms: N1_7  and  C7_8 
REMARK    3  A    between atoms: C7_8  and  C8_9 
REMARK    4  A    between atoms: C8_9  and  C9_10 
REMARK    5  A    between atoms: C9_10  and  O1_11 
ROOT
ATOM      1  N1  <0> d           3.620  -0.649  -0.036  0.00  0.00    -0.390 N 
ATOM      2  H6  <0> d           4.452  -0.152  -0.042  0.00  0.00     0.159 HD
ENDROOT
BRANCH   1   3
ATOM      3  C4  <0> d           2.400   0.031  -0.021  0.00  0.00     0.027 A 
ATOM      4  C3  <0> d           2.377   1.420  -0.013  0.00  0.00    -0.058 A 
ATOM      5  C2  <0> d           1.169   2.089   0.002  0.00  0.00    -0.081 A 
ATOM      6  H3  <0> d           3.303   1.976  -0.019  0.00  0.00     0.086 H 
ATOM      7  C1  <0> d          -0.017   1.379   0.010  0.00  0.00    -0.083 A 
ATOM      8  H2  <0> d           1.151   3.169   0.008  0.00  0.00     0.083 H 
ATOM      9  C6  <0> d           0.002  -0.004   0.002  0.00  0.00    -0.081 A 
ATOM     10  H1  <0> d          -0.960   1.905   0.026  0.00  0.00     0.083 H 
ATOM     11  C5  <0> d           1.206  -0.680  -0.013  0.00  0.00    -0.058 A 
ATOM     12  H5  <0> d          -0.926  -0.556   0.008  0.00  0.00     0.083 H 
ATOM     13  H4  <0> d           1.220  -1.760  -0.019  0.00  0.00     0.086 H 
ENDBRANCH   1   3
BRANCH   1  14
ATOM     14  C7  <0> d           3.641  -2.114  -0.044  0.00  0.00    -0.005 C 
ATOM     15  H7  <0> d           3.142  -2.490   0.849  0.00  0.00     0.064 H 
ATOM     16  H8  <0> d           3.124  -2.480  -0.931  0.00  0.00     0.064 H 
BRANCH  14  17
ATOM     17  C8  <0> d           5.091  -2.602  -0.061  0.00  0.00    -0.031 C 
ATOM     18  H9  <0> d           5.591  -2.227  -0.954  0.00  0.00     0.038 H 
ATOM     19  H10 <0> d           5.608  -2.236   0.826  0.00  0.00     0.038 H 
BRANCH  17  20
ATOM     20  C9  <0> d           5.114  -4.132  -0.070  0.00  0.00     0.018 C 
ATOM     21  H11 <0> d           4.614  -4.508   0.823  0.00  0.00     0.074 H 
ATOM     22  H12 <0> d           4.597  -4.498  -0.957  0.00  0.00     0.074 H 
BRANCH  20  23
ATOM     23  O1  <0> d           6.468  -4.588  -0.086  0.00  0.00    -0.401 OA
ATOM     24  H13 <0> d           6.559  -5.551  -0.092  0.00  0.00     0.209 HD
ENDBRANCH  20  23
ENDBRANCH  17  20
ENDBRANCH  14  17
ENDBRANCH   1  14
TORSDOF 5
