REMARK  0 active torsions:
REMARK  status: ('A' for Active; 'I' for Inactive)
ROOT
ATOM      1  C1  <0> d          -0.018   1.497   0.010  0.00  0.00     0.021 C 
ATOM      2  N1  <0> d           1.215   1.864   0.001  0.00  0.00    -0.189 NA
ATOM      3  N2  <0> d           2.102   0.788  -0.102  0.00  0.00    -0.264 N 
ATOM      4  C2  <0> d           1.434  -0.324  -0.432  0.00  0.00     0.143 C 
ATOM      5  N3  <0> d           1.601  -1.480  -1.004  0.00  0.00    -0.178 NA
ATOM      6  C3  <0> d           0.560  -2.140  -1.533  0.00  0.00     0.350 C 
ATOM      7  O1  <0> d           0.762  -3.259  -1.966  0.00  0.00    -0.244 OA
ATOM      8  N4  <0> d          -0.690  -1.656  -1.619  0.00  0.00    -0.276 N 
ATOM      9  C4  <0> d          -1.074  -0.579  -0.882  0.00  0.00     0.242 C 
ATOM     10  O2  <0> d          -2.195  -0.117  -0.933  0.00  0.00    -0.272 OA
ATOM     11  C5  <0> d           0.002  -0.004   0.002  0.00  0.00     0.116 C 
ATOM     12  H1  <0> d          -0.143  -0.357   1.023  0.00  0.00     0.075 H 
ATOM     13  H2  <0> d          -0.888   2.137   0.026  0.00  0.00     0.112 H 
ATOM     14  H3  <0> d           3.060   0.839   0.043  0.00  0.00     0.190 HD
ATOM     15  H4  <0> d          -1.327  -2.081  -2.214  0.00  0.00     0.173 HD
ENDROOT
TORSDOF 0
