REMARK  4 active torsions:
REMARK  status: ('A' for Active; 'I' for Inactive)
REMARK    1  A    between atoms: C1_1  and  C2_2 
REMARK    2  A    between atoms: C2_2  and  C3_3 
REMARK    3  A    between atoms: C2_2  and  C4_4 
REMARK    4  A    between atoms: C4_4  and  O1_5 
ROOT
ATOM      1  C2  <0> d           0.002  -0.004   0.002  0.00  0.00     0.063 C 
ATOM      2  C5  <0> d           0.691  -0.479  -1.209  0.00  0.00     0.070 C 
ATOM      3  N1  <0> d           1.223  -0.845  -2.144  0.00  0.00    -0.196 NA
ENDROOT
BRANCH   1   4
ATOM      4  C1  <0> d          -0.019   1.526   0.010  0.00  0.00    -0.055 C 
ATOM      5  H1  <0> d           1.004   1.903   0.003  0.00  0.00     0.029 H 
ATOM      6  H2  <0> d          -0.546   1.887  -0.873  0.00  0.00     0.029 H 
ATOM      7  H3  <0> d          -0.529   1.877   0.907  0.00  0.00     0.029 H 
ENDBRANCH   1   4
BRANCH   1   8
ATOM      8  C3  <0> d           0.742  -0.511   1.242  0.00  0.00    -0.055 C 
ATOM      9  H4  <0> d           0.232  -0.159   2.138  0.00  0.00     0.029 H 
ATOM     10  H5  <0> d           0.757  -1.601   1.236  0.00  0.00     0.029 H 
ATOM     11  H6  <0> d           1.765  -0.134   1.234  0.00  0.00     0.029 H 
ENDBRANCH   1   8
BRANCH   1  12
ATOM     12  C4  <0> d          -1.433  -0.534   0.013  0.00  0.00     0.035 C 
ATOM     13  H7  <0> d          -1.960  -0.173  -0.870  0.00  0.00     0.076 H 
ATOM     14  H8  <0> d          -1.419  -1.623   0.007  0.00  0.00     0.076 H 
BRANCH  12  15
ATOM     15  O1  <0> d          -2.102  -0.073   1.189  0.00  0.00    -0.399 OA
ATOM     16  H9  <0> d          -3.019  -0.371   1.262  0.00  0.00     0.209 HD
ENDBRANCH  12  15
ENDBRANCH   1  12
TORSDOF 4
