REMARK  5 active torsions:
REMARK  status: ('A' for Active; 'I' for Inactive)
REMARK    1  A    between atoms: C1_1  and  O1_2 
REMARK    2  A    between atoms: O1_2  and  C2_3 
REMARK    3  A    between atoms: C2_3  and  C3_4 
REMARK    4  A    between atoms: C2_3  and  O2_6 
REMARK    5  A    between atoms: O2_6  and  C5_7 
ROOT
ATOM      1  C3  <0> d           0.508   0.031   0.563  0.00  0.00    -0.057 C 
ATOM      2  C4  <0> d           0.674  -1.120   0.723  0.00  0.00    -0.149 C 
ATOM      3  H5  <0> d           0.829  -2.199   0.872  0.00  0.00     0.166 H 
ENDROOT
BRANCH   1   4
ATOM      4  C2  <0> d           0.300   1.475   0.363  0.00  0.00     0.190 C 
ATOM      5  H4  <0> d           1.204   2.045   0.621  0.00  0.00     0.151 H 
BRANCH   4   6
ATOM      6  O1  <0> d          -0.023   1.724  -1.006  0.00  0.00    -0.355 OA
BRANCH   6   7
ATOM      7  C1  <0> d           0.315   3.039  -1.453  0.00  0.00     0.008 C 
ATOM      8  H1  <0> d           0.037   3.150  -2.511  0.00  0.00     0.066 H 
ATOM      9  H2  <0> d           1.398   3.198  -1.340  0.00  0.00     0.066 H 
ATOM     10  H3  <0> d          -0.229   3.782  -0.851  0.00  0.00     0.066 H 
ENDBRANCH   6   7
ENDBRANCH   4   6
BRANCH   4  11
ATOM     11  O2  <0> d          -0.774   1.921   1.194  0.00  0.00    -0.355 OA
BRANCH  11  12
ATOM     12  C5  <0> d          -0.860   3.342   1.319  0.00  0.00     0.008 C 
ATOM     13  H6  <0> d          -1.707   3.602   1.971  0.00  0.00     0.066 H 
ATOM     14  H7  <0> d          -1.012   3.789   0.326  0.00  0.00     0.066 H 
ATOM     15  H8  <0> d           0.072   3.729   1.758  0.00  0.00     0.066 H 
ENDBRANCH  11  12
ENDBRANCH   4  11
ENDBRANCH   1   4
TORSDOF 5
