REMARK  1 active torsions:
REMARK  status: ('A' for Active; 'I' for Inactive)
REMARK    1  A    between atoms: C1_1  and  C2_2 
ROOT
ATOM      1  C2  <0> d          -3.925   3.729  -0.706  0.00  0.00    -0.061 A 
ATOM      2  C3  <0> d          -3.933   3.735   0.678  0.00  0.00    -0.077 A 
ATOM      3  C4  <0> d          -2.946   3.069   1.382  0.00  0.00    -0.075 A 
ATOM      4  C5  <0> d          -1.945   2.393   0.711  0.00  0.00    -0.044 A 
ATOM      5  C6  <0> d          -1.929   2.381  -0.684  0.00  0.00     0.017 A 
ATOM      6  C7  <0> d          -2.934   3.061  -1.389  0.00  0.00    -0.063 A 
ATOM      7  C8  <0> d          -0.781   1.605  -1.183  0.00  0.00     0.160 A 
ATOM      8  O1  <0> d          -0.502   1.416  -2.348  0.00  0.00    -0.292 OA
ATOM      9  C9  <0> d          -0.013   1.086   0.008  0.00  0.00    -0.001 A 
ATOM     10  C10 <0> d          -0.771   1.601   1.239  0.00  0.00    -0.034 A 
ATOM     11  H4  <0> d          -4.712   4.261   1.210  0.00  0.00     0.084 H 
ATOM     12  H5  <0> d          -2.958   3.078   2.462  0.00  0.00     0.084 H 
ATOM     13  H6  <0> d          -2.931   3.059  -2.469  0.00  0.00     0.085 H 
ATOM     14  H7  <0> d           0.014   0.087  -0.022  0.00  0.00     0.045 H 
ATOM     15  H8  <0> d           1.005   1.477   0.000  0.00  0.00     0.045 H 
ATOM     16  H9  <0> d          -1.124   0.762   1.839  0.00  0.00     0.040 H 
ATOM     17  H10 <0> d          -0.123   2.242   1.837  0.00  0.00     0.040 H 
ENDROOT
BRANCH   1  18
ATOM     18  C1  <0> d          -5.003   4.457  -1.466  0.00  0.00    -0.051 C 
ATOM     19  H1  <0> d          -4.689   5.484  -1.650  0.00  0.00     0.033 H 
ATOM     20  H2  <0> d          -5.178   3.955  -2.418  0.00  0.00     0.033 H 
ATOM     21  H3  <0> d          -5.923   4.457  -0.881  0.00  0.00     0.033 H 
ENDBRANCH   1  18
TORSDOF 1
