REMARK  1 active torsions:
REMARK  status: ('A' for Active; 'I' for Inactive)
REMARK    1  A    between atoms: C4_7  and  N5_11 
ROOT
ATOM      1  C1  <0> d          -0.016   1.313   0.009  0.00  0.00     0.091 A 
ATOM      2  N1  <0> d           1.222   1.790   0.000  0.00  0.00    -0.220 NA
ATOM      3  C2  <0> d           2.071   0.767  -0.014  0.00  0.00     0.179 A 
ATOM      4  C3  <0> d           1.285  -0.410  -0.012  0.00  0.00     0.199 A 
ATOM      5  N2  <0> d           0.002  -0.004   0.002  0.00  0.00    -0.219 NA
ATOM      6  N3  <0> d           1.875  -1.604  -0.024  0.00  0.00    -0.204 NA
ATOM      7  C4  <0> d           3.189  -1.704  -0.037  0.00  0.00     0.178 A 
ATOM      8  C5  <0> d           3.999  -0.559  -0.038  0.00  0.00     0.226 A 
ATOM      9  N4  <0> d           3.437   0.665  -0.027  0.00  0.00    -0.313 N 
ATOM     10  O1  <0> d           5.343  -0.683  -0.051  0.00  0.00    -0.168 OA
ATOM     11  H1  <0> d          -0.910   1.919   0.025  0.00  0.00     0.146 H 
ATOM     12  H4  <0> d           3.991   1.461  -0.028  0.00  0.00     0.170 HD
ENDROOT
BRANCH   7  13
ATOM     13  N5  <0> d           3.783  -2.965  -0.048  0.00  0.00    -0.380 N 
ATOM     14  H2  <0> d           3.229  -3.762  -0.047  0.00  0.00     0.158 HD
ATOM     15  H3  <0> d           4.750  -3.047  -0.058  0.00  0.00     0.158 HD
ENDBRANCH   7  13
TORSDOF 1
