REMARK  2 active torsions:
REMARK  status: ('A' for Active; 'I' for Inactive)
REMARK    1  A    between atoms: C1_1  and  O1_2 
REMARK    2  A    between atoms: O1_2  and  C2_3 
ROOT
ATOM      1  C2  <0> d          -1.210   3.194  -0.438  0.00  0.00     0.045 C 
ATOM      2  C3  <0> d          -0.071   3.833  -0.446  0.00  0.00    -0.071 C 
ATOM      3  C4  <0> d           1.214   3.207   0.007  0.00  0.00    -0.033 C 
ATOM      4  C5  <0> d           1.119   1.711   0.001  0.00  0.00    -0.103 C 
ATOM      5  C6  <0> d          -0.013   1.076   0.008  0.00  0.00    -0.100 C 
ATOM      6  C7  <0> d          -1.339   1.774   0.018  0.00  0.00    -0.006 C 
ATOM      7  H4  <0> d          -0.054   4.856  -0.793  0.00  0.00     0.081 H 
ATOM      8  H5  <0> d           1.440   3.547   1.018  0.00  0.00     0.044 H 
ATOM      9  H6  <0> d           2.017   3.517  -0.661  0.00  0.00     0.044 H 
ATOM     10  H7  <0> d           2.034   1.137  -0.011  0.00  0.00     0.076 H 
ATOM     11  H8  <0> d           0.002  -0.004   0.002  0.00  0.00     0.076 H 
ATOM     12  H9  <0> d          -2.026   1.246  -0.643  0.00  0.00     0.049 H 
ATOM     13  H10 <0> d          -1.741   1.763   1.032  0.00  0.00     0.049 H 
ENDROOT
BRANCH   1  14
ATOM     14  O1  <0> d          -2.322   3.842  -0.866  0.00  0.00    -0.360 OA
BRANCH  14  15
ATOM     15  C1  <0> d          -2.159   5.194  -1.298  0.00  0.00     0.010 C 
ATOM     16  H1  <0> d          -1.769   5.794  -0.476  0.00  0.00     0.066 H 
ATOM     17  H2  <0> d          -1.461   5.227  -2.135  0.00  0.00     0.066 H 
ATOM     18  H3  <0> d          -3.123   5.594  -1.614  0.00  0.00     0.066 H 
ENDBRANCH  14  15
ENDBRANCH   1  14
TORSDOF 2
