REMARK  3 active torsions:
REMARK  status: ('A' for Active; 'I' for Inactive)
REMARK    1  A    between atoms: C1_1  and  C2_2 
REMARK    2  A    between atoms: C1_1  and  O1_8 
REMARK    3  A    between atoms: C2_2  and  C3_3 
ROOT
ATOM      1  C2  <0> d          -0.017   1.395   0.010  0.00  0.00     0.321 C 
ATOM      2  F3  <0> d           0.002  -0.004   0.002  0.00  0.00    -0.198 F 
ATOM      3  F4  <0> d           1.296   1.879  -0.000  0.00  0.00    -0.198 F 
ENDROOT
BRANCH   1   4
ATOM      4  C1  <0> d          -0.733   1.888   1.268  0.00  0.00     0.083 C 
ATOM      5  H1  <0> d          -0.206   1.527   2.152  0.00  0.00     0.083 H 
ATOM      6  H2  <0> d          -0.748   2.978   1.274  0.00  0.00     0.083 H 
BRANCH   4   7
ATOM      7  O1  <0> d          -2.074   1.394   1.279  0.00  0.00    -0.395 OA
ATOM      8  H4  <0> d          -2.588   1.668   2.050  0.00  0.00     0.209 HD
ENDBRANCH   4   7
ENDBRANCH   1   4
BRANCH   1   9
ATOM      9  C3  <0> d          -0.757   1.902  -1.230  0.00  0.00     0.272 C 
ATOM     10  F1  <0> d          -0.776   3.300  -1.222  0.00  0.00    -0.208 F 
ATOM     11  F2  <0> d          -0.102   1.450  -2.381  0.00  0.00    -0.208 F 
ATOM     12  H3  <0> d          -1.780   1.524  -1.222  0.00  0.00     0.155 H 
ENDBRANCH   1   9
TORSDOF 3
