REMARK  4 active torsions:
REMARK  status: ('A' for Active; 'I' for Inactive)
REMARK    1  A    between atoms: C1_1  and  C2_2 
REMARK    2  A    between atoms: C2_2  and  O1_3 
REMARK    3  A    between atoms: O1_3  and  C3_4 
REMARK    4  A    between atoms: C5_6  and  O2_10 
ROOT
ATOM      1  C3  <0> d          -0.149   1.182   2.380  0.00  0.00     0.088 A 
ATOM      2  C4  <0> d          -0.742   1.591   3.569  0.00  0.00    -0.016 A 
ATOM      3  C5  <0> d          -0.160   1.193   4.767  0.00  0.00     0.085 A 
ATOM      4  C6  <0> d           0.984   0.407   4.734  0.00  0.00     0.034 A 
ATOM      5  N1  <0> d           1.517   0.039   3.586  0.00  0.00    -0.268 NA
ATOM      6  C7  <0> d           0.991   0.392   2.430  0.00  0.00     0.034 A 
ATOM      7  H6  <0> d          -1.632   2.203   3.562  0.00  0.00     0.092 H 
ATOM      8  H7  <0> d           1.442   0.093   5.660  0.00  0.00     0.119 H 
ATOM      9  H8  <0> d           1.455   0.067   1.511  0.00  0.00     0.119 H 
ENDROOT
BRANCH   1  10
ATOM     10  O1  <0> d          -0.682   1.547   1.184  0.00  0.00    -0.350 OA
BRANCH  10  11
ATOM     11  C2  <0> d          -0.013   1.086   0.008  0.00  0.00     0.023 C 
ATOM     12  H4  <0> d           0.002  -0.004   0.002  0.00  0.00     0.074 H 
ATOM     13  H5  <0> d           1.010   1.463   0.000  0.00  0.00     0.074 H 
BRANCH  11  14
ATOM     14  C1  <0> d          -0.753   1.593  -1.232  0.00  0.00    -0.056 C 
ATOM     15  H1  <0> d          -1.775   1.215  -1.224  0.00  0.00     0.030 H 
ATOM     16  H2  <0> d          -0.767   2.683  -1.226  0.00  0.00     0.030 H 
ATOM     17  H3  <0> d          -0.242   1.241  -2.128  0.00  0.00     0.030 H 
ENDBRANCH  11  14
ENDBRANCH  10  11
ENDBRANCH   1  10
BRANCH   3  18
ATOM     18  O2  <0> d          -0.704   1.567   5.955  0.00  0.00    -0.359 OA
ATOM     19  H9  <0> d          -1.361   0.947   6.299  0.00  0.00     0.217 HD
ENDBRANCH   3  18
TORSDOF 4
