REMARK  3 active torsions:
REMARK  status: ('A' for Active; 'I' for Inactive)
REMARK    1  A    between atoms: C1_1  and  O1_2 
REMARK    2  A    between atoms: O1_2  and  C2_3 
REMARK    3  A    between atoms: C4_5  and  C7_9 
REMARK       I    between atoms: C7_9  and  N2_11 
ROOT
ATOM      1  C2  <0> d           1.133  -0.689  -0.013  0.00  0.00     0.164 A 
ATOM      2  C3  <0> d           2.358  -0.035  -0.021  0.00  0.00    -0.017 A 
ATOM      3  C4  <0> d           2.380   1.360  -0.013  0.00  0.00     0.037 A 
ATOM      4  C5  <0> d           1.157   2.041   0.002  0.00  0.00    -0.051 A 
ATOM      5  C6  <0> d          -0.016   1.315   0.009  0.00  0.00     0.006 A 
ATOM      6  N1  <0> d           0.002  -0.004   0.002  0.00  0.00    -0.237 NA
ATOM      7  H4  <0> d           3.280  -0.598  -0.032  0.00  0.00     0.091 H 
ATOM      8  H5  <0> d           1.133   3.121   0.008  0.00  0.00     0.087 H 
ATOM      9  H6  <0> d          -0.963   1.834   0.017  0.00  0.00     0.114 H 
ENDROOT
BRANCH   1  10
ATOM     10  O1  <0> d           1.095  -2.045  -0.020  0.00  0.00    -0.339 OA
BRANCH  10  11
ATOM     11  C1  <0> d          -0.195  -2.659  -0.011  0.00  0.00     0.012 C 
ATOM     12  H1  <0> d          -0.735  -2.356   0.886  0.00  0.00     0.067 H 
ATOM     13  H2  <0> d          -0.752  -2.345  -0.894  0.00  0.00     0.067 H 
ATOM     14  H3  <0> d          -0.082  -3.743  -0.018  0.00  0.00     0.067 H 
ENDBRANCH  10  11
ENDBRANCH   1  10
BRANCH   3  15
ATOM     15  C7  <0> d           3.663   2.101  -0.022  0.00  0.00     0.249 C 
ATOM     16  O2  <0> d           4.715   1.493  -0.035  0.00  0.00    -0.268 OA
ATOM     17  N2  <0> d           3.663   3.449  -0.015  0.00  0.00    -0.366 N 
ATOM     18  H7  <0> d           2.823   3.934  -0.004  0.00  0.00     0.159 HD
ATOM     19  H8  <0> d           4.503   3.934  -0.020  0.00  0.00     0.159 HD
ENDBRANCH   3  15
TORSDOF 3
