REMARK  5 active torsions:
REMARK  status: ('A' for Active; 'I' for Inactive)
REMARK    1  A    between atoms: C1_1  and  C2_2 
REMARK    2  A    between atoms: C5_5  and  C8_9 
REMARK    3  A    between atoms: C8_9  and  C9_11 
REMARK    4  A    between atoms: C8_9  and  C10_12 
REMARK    5  A    between atoms: C10_12  and  O1_13 
ROOT
ATOM      1  C2  <0> d           2.423   1.366  -0.330  0.00  0.00    -0.087 C 
ATOM      2  C3  <0> d           1.383   2.062  -0.000  0.00  0.00    -0.101 C 
ATOM      3  C4  <0> d          -0.019   1.526   0.010  0.00  0.00    -0.046 C 
ATOM      4  C5  <0> d           0.002  -0.004   0.002  0.00  0.00    -0.046 C 
ATOM      5  H1  <0> d           0.363  -0.371   0.963  0.00  0.00     0.041 H 
ATOM      6  C6  <0> d           0.944  -0.470  -1.115  0.00  0.00    -0.058 C 
ATOM      7  C7  <0> d           2.374  -0.078  -0.737  0.00  0.00    -0.045 C 
ATOM      8  H6  <0> d           1.533   3.093   0.285  0.00  0.00     0.077 H 
ATOM      9  H7  <0> d          -0.549   1.885  -0.871  0.00  0.00     0.039 H 
ATOM     10  H8  <0> d          -0.532   1.875   0.906  0.00  0.00     0.039 H 
ATOM     11  H9  <0> d           0.878  -1.553  -1.222  0.00  0.00     0.034 H 
ATOM     12  H10 <0> d           0.665   0.009  -2.054  0.00  0.00     0.034 H 
ATOM     13  H11 <0> d           2.713  -0.699   0.092  0.00  0.00     0.039 H 
ATOM     14  H12 <0> d           3.030  -0.233  -1.594  0.00  0.00     0.039 H 
ENDROOT
BRANCH   4  15
ATOM     15  C8  <0> d          -1.408  -0.536  -0.259  0.00  0.00    -0.033 C 
ATOM     16  H2  <0> d          -1.760  -0.174  -1.225  0.00  0.00     0.043 H 
BRANCH  15  17
ATOM     17  C9  <0> d          -2.350  -0.047   0.843  0.00  0.00    -0.071 C 
ATOM     18  H13 <0> d          -1.998  -0.409   1.809  0.00  0.00     0.028 H 
ATOM     19  H14 <0> d          -2.368   1.043   0.848  0.00  0.00     0.028 H 
ATOM     20  H15 <0> d          -3.355  -0.426   0.656  0.00  0.00     0.028 H 
ENDBRANCH  15  17
BRANCH  15  21
ATOM     21  C10 <0> d          -1.383  -2.066  -0.267  0.00  0.00     0.020 C 
ATOM     22  H16 <0> d          -0.646  -2.413  -0.991  0.00  0.00     0.074 H 
ATOM     23  H17 <0> d          -1.117  -2.430   0.725  0.00  0.00     0.074 H 
BRANCH  21  24
ATOM     24  O1  <0> d          -2.675  -2.562  -0.626  0.00  0.00    -0.400 OA
ATOM     25  H18 <0> d          -2.732  -3.527  -0.651  0.00  0.00     0.209 HD
ENDBRANCH  21  24
ENDBRANCH  15  21
ENDBRANCH   4  15
BRANCH   1  26
ATOM     26  C1  <0> d           3.767   2.047  -0.301  0.00  0.00    -0.055 C 
ATOM     27  H3  <0> d           3.969   2.492  -1.276  0.00  0.00     0.033 H 
ATOM     28  H4  <0> d           3.764   2.826   0.461  0.00  0.00     0.033 H 
ATOM     29  H5  <0> d           4.541   1.315  -0.069  0.00  0.00     0.033 H 
ENDBRANCH   1  26
TORSDOF 5
