REMARK  4 active torsions:
REMARK  status: ('A' for Active; 'I' for Inactive)
REMARK    1  A    between atoms: C1_1  and  C2_2 
REMARK    2  A    between atoms: C2_2  and  C3_3 
REMARK    3  A    between atoms: C3_3  and  C4_5 
REMARK    4  A    between atoms: C3_3  and  O1_12 
ROOT
ATOM      1  C4  <0> d           1.158   3.165   0.007  0.00  0.00     0.009 A 
ATOM      2  C5  <0> d           1.175   1.783   0.000  0.00  0.00    -0.071 A 
ATOM      3  C6  <0> d          -0.013   1.076   0.008  0.00  0.00    -0.082 A 
ATOM      4  C7  <0> d          -1.220   1.750   0.017  0.00  0.00    -0.080 A 
ATOM      5  C8  <0> d          -1.240   3.132   0.030  0.00  0.00    -0.045 A 
ATOM      6  C9  <0> d          -0.050   3.841   0.022  0.00  0.00     0.125 A 
ATOM      7  F1  <0> d          -0.068   5.192   0.030  0.00  0.00    -0.205 F 
ATOM      8  H7  <0> d           2.117   1.255  -0.011  0.00  0.00     0.084 H 
ATOM      9  H8  <0> d           0.002  -0.004   0.002  0.00  0.00     0.083 H 
ATOM     10  H9  <0> d          -2.147   1.197   0.019  0.00  0.00     0.083 H 
ATOM     11  H10 <0> d          -2.182   3.658   0.042  0.00  0.00     0.088 H 
ENDROOT
BRANCH   1  12
ATOM     12  C3  <0> d           2.453   3.935  -0.001  0.00  0.00     0.063 C 
ATOM     13  H1  <0> d           2.341   4.841   0.594  0.00  0.00     0.090 H 
BRANCH  12  14
ATOM     14  C2  <0> d           2.813   4.311  -1.440  0.00  0.00    -0.040 C 
ATOM     15  H5  <0> d           3.012   3.405  -2.013  0.00  0.00     0.036 H 
ATOM     16  H6  <0> d           1.982   4.852  -1.893  0.00  0.00     0.036 H 
BRANCH  14  17
ATOM     17  C1  <0> d           4.060   5.198  -1.438  0.00  0.00    -0.074 C 
ATOM     18  H2  <0> d           4.890   4.657  -0.986  0.00  0.00     0.027 H 
ATOM     19  H3  <0> d           4.316   5.466  -2.463  0.00  0.00     0.027 H 
ATOM     20  H4  <0> d           3.860   6.104  -0.865  0.00  0.00     0.027 H 
ENDBRANCH  14  17
ENDBRANCH  12  14
BRANCH  12  21
ATOM     21  O1  <0> d           3.492   3.126   0.554  0.00  0.00    -0.391 OA
ATOM     22  H11 <0> d           3.647   2.301   0.074  0.00  0.00     0.210 HD
ENDBRANCH  12  21
ENDBRANCH   1  12
TORSDOF 4
