REMARK  5 active torsions:
REMARK  status: ('A' for Active; 'I' for Inactive)
REMARK    1  A    between atoms: C1_1  and  C2_2 
REMARK    2  A    between atoms: C2_2  and  C3_3 
REMARK    3  A    between atoms: C3_3  and  C10_11 
REMARK    4  A    between atoms: C7_7  and  C8_9 
REMARK    5  A    between atoms: C7_7  and  C9_10 
ROOT
ATOM      1  C3  <0> d           2.364   1.550   0.712  0.00  0.00     0.058 C 
ATOM      2  C4  <0> d           2.382   0.022   0.708  0.00  0.00    -0.036 C 
ATOM      3  C5  <0> d           0.994  -0.522   1.044  0.00  0.00    -0.060 C 
ATOM      4  C6  <0> d           0.002  -0.004   0.002  0.00  0.00    -0.037 C 
ATOM      5  C7  <0> d          -0.019   1.524   0.010  0.00  0.00     0.054 C 
ATOM      6  O1  <0> d           1.273   2.086   0.001  0.00  0.00    -0.370 OA
ATOM      7  H6  <0> d           3.102  -0.335   1.447  0.00  0.00     0.037 H 
ATOM      8  H7  <0> d           2.683  -0.335  -0.280  0.00  0.00     0.037 H 
ATOM      9  H8  <0> d           0.695  -0.213   2.042  0.00  0.00     0.033 H 
ATOM     10  H9  <0> d           1.017  -1.615   1.005  0.00  0.00     0.033 H 
ATOM     11  H10 <0> d          -0.997  -0.383   0.231  0.00  0.00     0.037 H 
ATOM     12  H11 <0> d           0.297  -0.358  -0.988  0.00  0.00     0.037 H 
ENDROOT
BRANCH   1  13
ATOM     13  C2  <0> d           3.667   2.037   0.041  0.00  0.00    -0.040 C 
ATOM     14  H4  <0> d           4.524   1.594   0.549  0.00  0.00     0.036 H 
ATOM     15  H5  <0> d           3.670   1.736  -1.006  0.00  0.00     0.036 H 
BRANCH  13  16
ATOM     16  C1  <0> d           3.750   3.562   0.135  0.00  0.00    -0.074 C 
ATOM     17  H1  <0> d           2.893   4.004  -0.372  0.00  0.00     0.027 H 
ATOM     18  H2  <0> d           3.747   3.862   1.183  0.00  0.00     0.027 H 
ATOM     19  H3  <0> d           4.670   3.905  -0.338  0.00  0.00     0.027 H 
ENDBRANCH  13  16
ENDBRANCH   1  13
BRANCH   1  20
ATOM     20  C10 <0> d           2.378   2.055   2.160  0.00  0.00    -0.048 C 
ATOM     21  H18 <0> d           3.280   1.700   2.660  0.00  0.00     0.031 H 
ATOM     22  H19 <0> d           2.366   3.145   2.165  0.00  0.00     0.031 H 
ATOM     23  H20 <0> d           1.500   1.679   2.685  0.00  0.00     0.031 H 
ENDBRANCH   1  20
BRANCH   5  24
ATOM     24  C8  <0> d          -0.761   1.990  -1.260  0.00  0.00    -0.048 C 
ATOM     25  H12 <0> d          -1.778   1.597  -1.252  0.00  0.00     0.031 H 
ATOM     26  H13 <0> d          -0.793   3.079  -1.283  0.00  0.00     0.031 H 
ATOM     27  H14 <0> d          -0.237   1.623  -2.143  0.00  0.00     0.031 H 
ENDBRANCH   5  24
BRANCH   5  28
ATOM     28  C9  <0> d          -0.825   2.015   1.219  0.00  0.00    -0.048 C 
ATOM     29  H15 <0> d          -0.362   1.653   2.137  0.00  0.00     0.031 H 
ATOM     30  H16 <0> d          -0.840   3.105   1.226  0.00  0.00     0.031 H 
ATOM     31  H17 <0> d          -1.845   1.638   1.153  0.00  0.00     0.031 H 
ENDBRANCH   5  28
TORSDOF 5
