REMARK  4 active torsions:
REMARK  status: ('A' for Active; 'I' for Inactive)
REMARK    1  A    between atoms: C1_1  and  C2_2 
REMARK    2  A    between atoms: C2_2  and  O1_3 
REMARK    3  A    between atoms: O1_3  and  C3_4 
REMARK    4  A    between atoms: C5_6  and  N2_9 
ROOT
ATOM      1  C3  <0> d           0.776  -1.805  -1.336  0.00  0.00     0.213 A 
ATOM      2  C4  <0> d           1.375  -2.437  -2.373  0.00  0.00     0.021 A 
ATOM      3  C5  <0> d           1.267  -3.826  -2.159  0.00  0.00     0.153 A 
ATOM      4  N1  <0> d           0.625  -4.013  -1.031  0.00  0.00    -0.108 NA
ATOM      5  O2  <0> d           0.310  -2.742  -0.492  0.00  0.00    -0.186 OA
ATOM      6  H6  <0> d           1.851  -1.960  -3.216  0.00  0.00     0.097 H 
ENDROOT
BRANCH   1   7
ATOM      7  O1  <0> d           0.671  -0.465  -1.174  0.00  0.00    -0.329 OA
BRANCH   7   8
ATOM      8  C2  <0> d           0.002  -0.004   0.002  0.00  0.00     0.025 C 
ATOM      9  H4  <0> d           0.529  -0.365   0.885  0.00  0.00     0.074 H 
ATOM     10  H5  <0> d          -1.020  -0.381   0.010  0.00  0.00     0.074 H 
BRANCH   8  11
ATOM     11  C1  <0> d          -0.019   1.526   0.010  0.00  0.00    -0.056 C 
ATOM     12  H1  <0> d           1.004   1.903   0.003  0.00  0.00     0.030 H 
ATOM     13  H2  <0> d          -0.546   1.887  -0.873  0.00  0.00     0.030 H 
ATOM     14  H3  <0> d          -0.529   1.877   0.907  0.00  0.00     0.030 H 
ENDBRANCH   8  11
ENDBRANCH   7   8
ENDBRANCH   1   7
BRANCH   3  15
ATOM     15  N2  <0> d           1.755  -4.823  -2.997  0.00  0.00    -0.382 N 
ATOM     16  H7  <0> d           2.219  -4.585  -3.815  0.00  0.00     0.157 HD
ATOM     17  H8  <0> d           1.631  -5.756  -2.763  0.00  0.00     0.157 HD
ENDBRANCH   3  15
TORSDOF 4
