REMARK  2 active torsions:
REMARK  status: ('A' for Active; 'I' for Inactive)
REMARK    1  A    between atoms: C1_1  and  C2_2 
REMARK       I    between atoms: C2_2  and  N1_4 
REMARK    2  A    between atoms: N1_4  and  C3_5 
ROOT
ATOM      1  C3  <0> d          -0.044  -2.071  -1.262  0.00  0.00     0.101 A 
ATOM      2  C4  <0> d          -0.112  -2.832  -0.141  0.00  0.00     0.006 A 
ATOM      3  N2  <0> d          -0.154  -4.187  -0.227  0.00  0.00    -0.373 N 
ATOM      4  C5  <0> d          -0.131  -4.821  -1.424  0.00  0.00    -0.019 A 
ATOM      5  C6  <0> d          -0.064  -4.120  -2.578  0.00  0.00    -0.018 A 
ATOM      6  C7  <0> d          -0.024  -2.709  -2.530  0.00  0.00     0.201 A 
ATOM      7  O2  <0> d           0.031  -2.050  -3.558  0.00  0.00    -0.286 OA
ATOM      8  H5  <0> d          -0.132  -2.357   0.828  0.00  0.00     0.115 H 
ATOM      9  H6  <0> d          -0.165  -5.900  -1.457  0.00  0.00     0.111 H 
ATOM     10  H7  <0> d          -0.046  -4.634  -3.528  0.00  0.00     0.091 H 
ATOM     11  H8  <0> d          -0.202  -4.713   0.587  0.00  0.00     0.164 HD
ENDROOT
BRANCH   1  12
ATOM     12  N1  <0> d           0.000  -0.672  -1.169  0.00  0.00    -0.323 N 
ATOM     13  C2  <0> d           1.038   0.006  -1.698  0.00  0.00     0.218 C 
ATOM     14  O1  <0> d           1.977  -0.596  -2.174  0.00  0.00    -0.274 OA
ATOM     15  H4  <0> d          -0.716  -0.192  -0.724  0.00  0.00     0.169 HD
BRANCH  13  16
ATOM     16  C1  <0> d           1.031   1.514  -1.699  0.00  0.00    -0.003 C 
ATOM     17  H1  <0> d           0.564   1.875  -2.615  0.00  0.00     0.040 H 
ATOM     18  H2  <0> d           0.469   1.875  -0.837  0.00  0.00     0.040 H 
ATOM     19  H3  <0> d           2.056   1.881  -1.644  0.00  0.00     0.040 H 
ENDBRANCH  13  16
ENDBRANCH   1  12
TORSDOF 2
