REMARK  1 active torsions:
REMARK  status: ('A' for Active; 'I' for Inactive)
REMARK    1  A    between atoms: C1_1  and  N4_9 
ROOT
ATOM      1  C1  <0> d          -0.016   1.297   0.009  0.00  0.00     0.718 A 
ATOM      2  N1  <0> d           1.281   1.756  -0.001  0.00  0.00    -0.137 N 
ATOM      3  H1  <0> d           1.554   2.687   0.002  0.00  0.00     0.189 HD
ATOM      4  C2  <0> d           2.108   0.691  -0.014  0.00  0.00     0.355 A 
ATOM      5  O1  <0> d           3.326   0.726  -0.025  0.00  0.00    -0.245 OA
ATOM      6  N2  <0> d           1.341  -0.420  -0.013  0.00  0.00    -0.212 N 
ATOM      7  H2  <0> d           1.657  -1.337  -0.021  0.00  0.00     0.194 HD
ATOM      8  N3  <0> d           0.002  -0.004   0.002  0.00  0.00     0.021 NA
ENDROOT
BRANCH   1   9
ATOM      9  N4  <0> d          -1.153   2.090   0.029  0.00  0.00    -0.231 N 
ATOM     10  H3  <0> d          -2.032   1.678   0.039  0.00  0.00     0.174 HD
ATOM     11  H4  <0> d          -1.071   3.056   0.034  0.00  0.00     0.174 HD
ENDBRANCH   1   9
TORSDOF 1
