REMARK  2 active torsions:
REMARK  status: ('A' for Active; 'I' for Inactive)
REMARK    1  A    between atoms: C2_2  and  N4_8 
REMARK    2  A    between atoms: C3_3  and  N3_7 
ROOT
ATOM      1  C1  <0> d           1.181  -2.087  -0.021  0.00  0.00     0.032 A 
ATOM      2  C2  <0> d           1.219  -0.701  -0.013  0.00  0.00     0.089 A 
ATOM      3  C3  <0> d           0.002  -0.004   0.002  0.00  0.00     0.150 A 
ATOM      4  N1  <0> d          -1.132  -0.695   0.015  0.00  0.00    -0.223 NA
ATOM      5  C4  <0> d          -1.119  -2.013   0.002  0.00  0.00     0.088 A 
ATOM      6  N2  <0> d           0.005  -2.700  -0.013  0.00  0.00    -0.252 NA
ATOM      7  H1  <0> d           2.096  -2.659  -0.033  0.00  0.00     0.118 H 
ATOM      8  H2  <0> d          -2.058  -2.547   0.008  0.00  0.00     0.146 H 
ENDROOT
BRANCH   2   9
ATOM      9  N4  <0> d           2.440  -0.015  -0.021  0.00  0.00    -0.395 N 
ATOM     10  H5  <0> d           2.451   0.955  -0.015  0.00  0.00     0.156 HD
ATOM     11  H6  <0> d           3.274  -0.509  -0.031  0.00  0.00     0.156 HD
ENDBRANCH   2   9
BRANCH   3  12
ATOM     12  N3  <0> d          -0.017   1.384   0.010  0.00  0.00    -0.382 N 
ATOM     13  H3  <0> d           0.817   1.880   0.004  0.00  0.00     0.157 HD
ATOM     14  H4  <0> d          -0.863   1.857   0.016  0.00  0.00     0.157 HD
ENDBRANCH   3  12
TORSDOF 2
