REMARK  3 active torsions:
REMARK  status: ('A' for Active; 'I' for Inactive)
REMARK    1  A    between atoms: C1_1  and  C2_2 
REMARK    2  A    between atoms: C2_2  and  C8_11 
REMARK    3  A    between atoms: C4_4  and  C7_9 
ROOT
ATOM      1  C2  <0> d           0.628  -0.573  -1.150  0.00  0.00     0.054 C 
ATOM      2  C3  <0> d           2.091  -0.124  -1.207  0.00  0.00    -0.024 C 
ATOM      3  C4  <0> d           2.147   1.406  -1.233  0.00  0.00     0.035 C 
ATOM      4  H1  <0> d           1.663   1.774  -2.137  0.00  0.00     0.056 H 
ATOM      5  C5  <0> d           1.419   1.953  -0.001  0.00  0.00    -0.033 C 
ATOM      6  C6  <0> d          -0.017   1.425   0.010  0.00  0.00     0.021 C 
ATOM      7  O1  <0> d           0.002  -0.004   0.002  0.00  0.00    -0.381 OA
ATOM      8  H5  <0> d           2.620  -0.494  -0.329  0.00  0.00     0.038 H 
ATOM      9  H6  <0> d           2.559  -0.522  -2.108  0.00  0.00     0.038 H 
ATOM     10  H7  <0> d           1.407   3.042  -0.040  0.00  0.00     0.037 H 
ATOM     11  H8  <0> d           1.935   1.626   0.902  0.00  0.00     0.037 H 
ATOM     12  H9  <0> d          -0.544   1.786  -0.873  0.00  0.00     0.074 H 
ATOM     13  H10 <0> d          -0.527   1.776   0.907  0.00  0.00     0.074 H 
ENDROOT
BRANCH   1  14
ATOM     14  C1  <0> d           0.565  -2.099  -1.063  0.00  0.00    -0.048 C 
ATOM     15  H2  <0> d          -0.476  -2.418  -1.022  0.00  0.00     0.031 H 
ATOM     16  H3  <0> d           1.043  -2.533  -1.942  0.00  0.00     0.031 H 
ATOM     17  H4  <0> d           1.084  -2.434  -0.165  0.00  0.00     0.031 H 
ENDBRANCH   1  14
BRANCH   1  18
ATOM     18  C8  <0> d          -0.100  -0.102  -2.411  0.00  0.00    -0.048 C 
ATOM     19  H11 <0> d          -0.054   0.985  -2.472  0.00  0.00     0.031 H 
ATOM     20  H12 <0> d           0.378  -0.536  -3.289  0.00  0.00     0.031 H 
ATOM     21  H13 <0> d          -1.141  -0.421  -2.369  0.00  0.00     0.031 H 
ENDBRANCH   1  18
BRANCH   3  22
ATOM     22  C7  <0> d           3.585   1.858  -1.211  0.00  0.00     0.177 C 
ATOM     23  O2  <0> d           4.474   1.041  -1.179  0.00  0.00    -0.648 OA
ATOM     24  O3  <0> d           3.877   3.168  -1.228  0.00  0.00    -0.648 OA
ENDBRANCH   3  22
TORSDOF 3
