REMARK  0 active torsions:
REMARK  status: ('A' for Active; 'I' for Inactive)
ROOT
ATOM      1  C1  <0> d          -0.017   1.373   0.010  0.00  0.00    -0.057 A 
ATOM      2  C2  <0> d           1.188   2.058   0.002  0.00  0.00     0.002 A 
ATOM      3  N1  <0> d           2.332   1.403  -0.013  0.00  0.00    -0.271 NA
ATOM      4  C3  <0> d           2.388   0.087  -0.020  0.00  0.00     0.028 A 
ATOM      5  C4  <0> d           1.222  -0.674  -0.013  0.00  0.00     0.059 A 
ATOM      6  C5  <0> d           0.002  -0.004   0.002  0.00  0.00    -0.020 A 
ATOM      7  C6  <0> d          -1.068  -1.067   0.006  0.00  0.00     0.035 A 
ATOM      8  C7  <0> d          -0.293  -2.369  -0.008  0.00  0.00     0.226 A 
ATOM      9  O1  <0> d          -0.763  -3.487  -0.010  0.00  0.00    -0.273 OA
ATOM     10  N2  <0> d           1.014  -2.052  -0.019  0.00  0.00    -0.325 N 
ATOM     11  H1  <0> d          -0.954   1.910   0.026  0.00  0.00     0.086 H 
ATOM     12  H2  <0> d           1.189   3.138   0.007  0.00  0.00     0.114 H 
ATOM     13  H3  <0> d           3.349  -0.407  -0.033  0.00  0.00     0.118 H 
ATOM     14  H4  <0> d          -1.675  -0.994   0.909  0.00  0.00     0.054 H 
ATOM     15  H5  <0> d          -1.692  -0.985  -0.883  0.00  0.00     0.054 H 
ATOM     16  H6  <0> d           1.729  -2.707  -0.029  0.00  0.00     0.169 HD
ENDROOT
TORSDOF 0
