REMARK  2 active torsions:
REMARK  status: ('A' for Active; 'I' for Inactive)
REMARK    1  A    between atoms: C3_3  and  C7_9 
REMARK    2  A    between atoms: C4_4  and  N1_8 
ROOT
ATOM      1  C1  <0> d          -1.280   1.871  -0.004  0.00  0.00    -0.044 A 
ATOM      2  C2  <0> d          -0.153   1.081   0.009  0.00  0.00    -0.061 A 
ATOM      3  C3  <0> d           1.114   1.673   0.023  0.00  0.00     0.067 A 
ATOM      4  C4  <0> d           1.226   3.073   0.030  0.00  0.00     0.045 A 
ATOM      5  C5  <0> d           0.080   3.854   0.023  0.00  0.00    -0.019 A 
ATOM      6  C6  <0> d          -1.167   3.255   0.009  0.00  0.00     0.118 A 
ATOM      7  F1  <0> d          -2.280   4.020   0.002  0.00  0.00    -0.206 F 
ATOM      8  H1  <0> d          -2.257   1.412  -0.019  0.00  0.00     0.088 H 
ATOM      9  H2  <0> d          -0.247   0.005   0.003  0.00  0.00     0.085 H 
ATOM     10  H3  <0> d           0.160   4.931   0.028  0.00  0.00     0.091 H 
ENDROOT
BRANCH   3  11
ATOM     11  C7  <0> d           2.323   0.833   0.029  0.00  0.00     0.211 C 
ATOM     12  O1  <0> d           3.420   1.347  -0.067  0.00  0.00    -0.644 OA
ATOM     13  O2  <0> d           2.213  -0.506   0.142  0.00  0.00    -0.644 OA
ENDBRANCH   3  11
BRANCH   4  14
ATOM     14  N1  <0> d           2.479   3.672   0.044  0.00  0.00    -0.398 N 
ATOM     15  H4  <0> d           3.278   3.128  -0.032  0.00  0.00     0.156 HD
ATOM     16  H5  <0> d           2.555   4.636   0.130  0.00  0.00     0.156 HD
ENDBRANCH   4  14
TORSDOF 2
