REMARK  2 active torsions:
REMARK  status: ('A' for Active; 'I' for Inactive)
REMARK    1  A    between atoms: C1_1  and  O1_2 
REMARK    2  A    between atoms: O1_2  and  C2_3 
ROOT
ATOM      1  C2  <0> d          -1.200  -0.637   0.010  0.00  0.00     0.079 A 
ATOM      2  C3  <0> d          -2.361   0.086   0.019  0.00  0.00    -0.050 A 
ATOM      3  C4  <0> d          -3.599  -0.549   0.028  0.00  0.00    -0.079 A 
ATOM      4  C5  <0> d          -3.695  -1.908   0.027  0.00  0.00    -0.071 A 
ATOM      5  C6  <0> d          -2.526  -2.686   0.018  0.00  0.00    -0.006 A 
ATOM      6  C7  <0> d          -1.262  -2.042   0.003  0.00  0.00     0.010 A 
ATOM      7  C8  <0> d          -0.107  -2.844  -0.012  0.00  0.00    -0.053 A 
ATOM      8  C9  <0> d          -0.252  -4.199  -0.017  0.00  0.00     0.003 A 
ATOM      9  N1  <0> d          -1.446  -4.775  -0.009  0.00  0.00    -0.272 NA
ATOM     10  C10 <0> d          -2.565  -4.090   0.017  0.00  0.00     0.013 A 
ATOM     11  H4  <0> d          -2.316   1.165   0.020  0.00  0.00     0.087 H 
ATOM     12  H5  <0> d          -4.500   0.046   0.036  0.00  0.00     0.083 H 
ATOM     13  H6  <0> d          -4.664  -2.385   0.035  0.00  0.00     0.084 H 
ATOM     14  H7  <0> d           0.875  -2.395  -0.019  0.00  0.00     0.087 H 
ATOM     15  H8  <0> d           0.631  -4.821  -0.029  0.00  0.00     0.114 H 
ATOM     16  H9  <0> d          -3.515  -4.605   0.024  0.00  0.00     0.116 H 
ENDROOT
BRANCH   1  17
ATOM     17  O1  <0> d           0.002  -0.004   0.002  0.00  0.00    -0.355 OA
BRANCH  17  18
ATOM     18  C1  <0> d          -0.017   1.425   0.010  0.00  0.00     0.010 C 
ATOM     19  H1  <0> d           1.005   1.802   0.002  0.00  0.00     0.066 H 
ATOM     20  H2  <0> d          -0.544   1.786  -0.873  0.00  0.00     0.066 H 
ATOM     21  H3  <0> d          -0.527   1.776   0.907  0.00  0.00     0.066 H 
ENDBRANCH  17  18
ENDBRANCH   1  17
TORSDOF 2
