REMARK  3 active torsions:
REMARK  status: ('A' for Active; 'I' for Inactive)
REMARK    1  A    between atoms: C1_1  and  C2_2 
REMARK    2  A    between atoms: C5_5  and  N2_9 
REMARK    3  A    between atoms: C6_6  and  C7_8 
ROOT
ATOM      1  C2  <0> d          -0.018   1.503   0.010  0.00  0.00     0.031 A 
ATOM      2  C3  <0> d           1.175   2.201   0.003  0.00  0.00    -0.057 A 
ATOM      3  C4  <0> d           1.149   3.585   0.010  0.00  0.00    -0.054 A 
ATOM      4  C5  <0> d          -0.089   4.224   0.025  0.00  0.00     0.050 A 
ATOM      5  C6  <0> d          -1.244   3.453   0.032  0.00  0.00     0.057 A 
ATOM      6  N1  <0> d          -1.174   2.137   0.019  0.00  0.00    -0.256 NA
ATOM      7  H4  <0> d           2.117   1.672  -0.009  0.00  0.00     0.086 H 
ATOM      8  H5  <0> d           2.066   4.156   0.004  0.00  0.00     0.087 H 
ENDROOT
BRANCH   1   9
ATOM      9  C1  <0> d           0.002  -0.004   0.002  0.00  0.00    -0.035 C 
ATOM     10  H1  <0> d           0.017  -0.373   1.028  0.00  0.00     0.035 H 
ATOM     11  H2  <0> d          -0.888  -0.377  -0.505  0.00  0.00     0.035 H 
ATOM     12  H3  <0> d           0.892  -0.352  -0.522  0.00  0.00     0.035 H 
ENDBRANCH   1   9
BRANCH   5  13
ATOM     13  C7  <0> d          -2.591   4.129   0.047  0.00  0.00    -0.033 C 
ATOM     14  H6  <0> d          -2.925   4.296  -0.977  0.00  0.00     0.035 H 
ATOM     15  H7  <0> d          -3.310   3.494   0.565  0.00  0.00     0.035 H 
ATOM     16  H8  <0> d          -2.512   5.085   0.565  0.00  0.00     0.035 H 
ENDBRANCH   5  13
BRANCH   4  17
ATOM     17  N2  <0> d          -0.167   5.619   0.033  0.00  0.00    -0.397 N 
ATOM     18  H9  <0> d           0.645   6.150   0.028  0.00  0.00     0.156 HD
ATOM     19  H10 <0> d          -1.033   6.056   0.043  0.00  0.00     0.156 HD
ENDBRANCH   4  17
TORSDOF 3
