REMARK  2 active torsions:
REMARK  status: ('A' for Active; 'I' for Inactive)
REMARK    1  A    between atoms: C1_1  and  C2_2 
REMARK    2  A    between atoms: C5_5  and  C7_8 
ROOT
ATOM      1  C2  <0> d           0.002  -0.004   0.002  0.00  0.00    -0.044 A 
ATOM      2  C3  <0> d          -0.017   1.384   0.010  0.00  0.00    -0.074 A 
ATOM      3  C4  <0> d           1.190   2.061   0.002  0.00  0.00    -0.055 A 
ATOM      4  C5  <0> d           2.377   1.329  -0.013  0.00  0.00     0.055 A 
ATOM      5  N1  <0> d           2.351   0.002  -0.020  0.00  0.00    -0.261 NA
ATOM      6  C6  <0> d           1.216  -0.666  -0.013  0.00  0.00     0.009 A 
ATOM      7  H4  <0> d          -0.952   1.923   0.017  0.00  0.00     0.084 H 
ATOM      8  H5  <0> d           1.212   3.141   0.007  0.00  0.00     0.087 H 
ATOM      9  H6  <0> d           1.233  -1.746  -0.019  0.00  0.00     0.115 H 
ENDROOT
BRANCH   4  10
ATOM     10  C7  <0> d           3.675   2.037  -0.023  0.00  0.00    -0.064 C 
ATOM     11  C8  <0> d           4.806   1.346  -0.037  0.00  0.00    -0.119 C 
ATOM     12  H8  <0> d           5.772   1.873  -0.044  0.00  0.00     0.066 H 
ATOM     13  H9  <0> d           4.780   0.246  -0.043  0.00  0.00     0.066 H 
ATOM     14  H7  <0> d           3.701   3.136  -0.017  0.00  0.00     0.085 H 
ENDBRANCH   4  10
BRANCH   1  15
ATOM     15  C1  <0> d          -1.289  -0.782   0.010  0.00  0.00    -0.050 C 
ATOM     16  H1  <0> d          -2.138  -0.083   0.022  0.00  0.00     0.033 H 
ATOM     17  H2  <0> d          -1.327  -1.420   0.905  0.00  0.00     0.033 H 
ATOM     18  H3  <0> d          -1.343  -1.410  -0.891  0.00  0.00     0.033 H 
ENDBRANCH   1  15
TORSDOF 2
