REMARK  1 active torsions:
REMARK  status: ('A' for Active; 'I' for Inactive)
REMARK    1  A    between atoms: C1_1  and  C2_2 
ROOT
ATOM      1  C2  <0> d          -0.013   1.086   0.008  0.00  0.00    -0.057 C 
ATOM      2  H1  <0> d           0.002  -0.004   0.002  0.00  0.00     0.039 H 
ATOM      3  C3  <0> d          -0.635   1.608  -1.257  0.00  0.00    -0.062 C 
ATOM      4  C4  <0> d          -0.619   0.512  -2.351  0.00  0.00    -0.059 C 
ATOM      5  C5  <0> d           0.702  -0.291  -2.287  0.00  0.00    -0.010 C 
ATOM      6  C6  <0> d           1.938   0.491  -2.062  0.00  0.00     0.127 C 
ATOM      7  O1  <0> d           2.572   0.921  -2.995  0.00  0.00    -0.298 OA
ATOM      8  C7  <0> d           2.401   0.748  -0.609  0.00  0.00    -0.009 C 
ATOM      9  C8  <0> d           1.407   1.635  -0.003  0.00  0.00    -0.056 C 
ATOM     10  H5  <0> d          -1.664   1.905  -1.058  0.00  0.00     0.033 H 
ATOM     11  H6  <0> d          -0.072   2.474  -1.605  0.00  0.00     0.033 H 
ATOM     12  H7  <0> d          -0.710   0.980  -3.331  0.00  0.00     0.033 H 
ATOM     13  H8  <0> d          -1.460  -0.163  -2.197  0.00  0.00     0.033 H 
ATOM     14  H9  <0> d           0.846  -0.765  -3.156  0.00  0.00     0.044 H 
ATOM     15  H10 <0> d           0.615  -1.023  -1.484  0.00  0.00     0.044 H 
ATOM     16  H11 <0> d           3.307   1.173  -0.619  0.00  0.00     0.044 H 
ATOM     17  H12 <0> d           2.447  -0.192  -0.060  0.00  0.00     0.044 H 
ATOM     18  H13 <0> d           1.408   2.579  -0.549  0.00  0.00     0.034 H 
ATOM     19  H14 <0> d           1.708   1.834   1.026  0.00  0.00     0.034 H 
ENDROOT
BRANCH   1  20
ATOM     20  C1  <0> d          -0.774   1.600   1.232  0.00  0.00    -0.073 C 
ATOM     21  H2  <0> d          -0.780   2.690   1.224  0.00  0.00     0.028 H 
ATOM     22  H3  <0> d          -1.799   1.231   1.204  0.00  0.00     0.028 H 
ATOM     23  H4  <0> d          -0.285   1.246   2.139  0.00  0.00     0.028 H 
ENDBRANCH   1  20
TORSDOF 1
