REMARK  3 active torsions:
REMARK  status: ('A' for Active; 'I' for Inactive)
REMARK    1  A    between atoms: C1_1  and  O1_2 
REMARK    2  A    between atoms: O1_2  and  C2_3 
REMARK    3  A    between atoms: C7_9  and  O2_11 
ROOT
ATOM      1  C2  <0> d           2.178   0.019   1.231  0.00  0.00     0.062 C 
ATOM      2  H1  <0> d           2.688  -0.333   0.334  0.00  0.00     0.087 H 
ATOM      3  C3  <0> d           2.157   1.548   1.239  0.00  0.00    -0.038 C 
ATOM      4  C4  <0> d           1.417   2.055  -0.000  0.00  0.00    -0.063 C 
ATOM      5  C5  <0> d          -0.019   1.526   0.010  0.00  0.00    -0.063 C 
ATOM      6  C6  <0> d           0.002  -0.004   0.002  0.00  0.00    -0.039 C 
ATOM      7  C7  <0> d           0.742  -0.511   1.242  0.00  0.00     0.060 C 
ATOM      8  H2  <0> d           0.232  -0.159   2.138  0.00  0.00     0.086 H 
ATOM      9  H6  <0> d           1.647   1.900   2.136  0.00  0.00     0.036 H 
ATOM     10  H7  <0> d           3.179   1.926   1.231  0.00  0.00     0.036 H 
ATOM     11  H8  <0> d           1.927   1.704  -0.897  0.00  0.00     0.033 H 
ATOM     12  H9  <0> d           1.402   3.145   0.006  0.00  0.00     0.033 H 
ATOM     13  H10 <0> d          -0.546   1.887  -0.873  0.00  0.00     0.033 H 
ATOM     14  H11 <0> d          -0.529   1.877   0.907  0.00  0.00     0.033 H 
ATOM     15  H12 <0> d          -1.020  -0.381   0.010  0.00  0.00     0.036 H 
ATOM     16  H13 <0> d           0.512  -0.356  -0.895  0.00  0.00     0.036 H 
ENDROOT
BRANCH   1  17
ATOM     17  O1  <0> d           2.869  -0.455   2.388  0.00  0.00    -0.388 OA
BRANCH  17  18
ATOM     18  C1  <0> d           4.274  -0.628   2.196  0.00  0.00     0.005 C 
ATOM     19  H3  <0> d           4.725  -0.990   3.120  0.00  0.00     0.066 H 
ATOM     20  H4  <0> d           4.445  -1.354   1.400  0.00  0.00     0.066 H 
ATOM     21  H5  <0> d           4.723   0.326   1.921  0.00  0.00     0.066 H 
ENDBRANCH  17  18
ENDBRANCH   1  17
BRANCH   7  22
ATOM     22  O2  <0> d           0.761  -1.940   1.234  0.00  0.00    -0.393 OA
ATOM     23  H14 <0> d          -0.117  -2.345   1.240  0.00  0.00     0.210 HD
ENDBRANCH   7  22
TORSDOF 3
