REMARK  8 active torsions:
REMARK  status: ('A' for Active; 'I' for Inactive)
REMARK    1  A    between atoms: C1_1  and  C2_2 
REMARK    2  A    between atoms: C2_2  and  C3_4 
REMARK    3  A    between atoms: C2_2  and  C9_10 
REMARK    4  A    between atoms: C3_4  and  C4_5 
REMARK    5  A    between atoms: C4_5  and  C5_6 
REMARK    6  A    between atoms: C6_7  and  C7_8 
REMARK    7  A    between atoms: C6_7  and  C8_9 
REMARK    8  A    between atoms: C9_10  and  O1_11 
ROOT
ATOM      1  C3  <0> d          -0.541   1.009   2.727  0.00  0.00    -0.057 C 
ATOM      2  H5  <0> d          -0.610  -0.063   2.910  0.00  0.00     0.034 H 
ATOM      3  H6  <0> d           0.473   1.261   2.418  0.00  0.00     0.034 H 
ENDROOT
BRANCH   1   4
ATOM      4  C2  <0> d          -1.524   1.402   1.622  0.00  0.00    -0.037 C 
ATOM      5  H1  <0> d          -1.520   2.485   1.501  0.00  0.00     0.042 H 
BRANCH   4   6
ATOM      6  C1  <0> d          -2.931   0.936   2.002  0.00  0.00    -0.071 C 
ATOM      7  H2  <0> d          -3.631   1.216   1.215  0.00  0.00     0.028 H 
ATOM      8  H3  <0> d          -2.935  -0.147   2.124  0.00  0.00     0.028 H 
ATOM      9  H4  <0> d          -3.230   1.408   2.938  0.00  0.00     0.028 H 
ENDBRANCH   4   6
BRANCH   4  10
ATOM     10  C9  <0> d          -1.105   0.740   0.308  0.00  0.00     0.020 C 
ATOM     11  H16 <0> d          -1.194  -0.342   0.402  0.00  0.00     0.074 H 
ATOM     12  H17 <0> d          -0.071   1.001   0.083  0.00  0.00     0.074 H 
BRANCH  10  13
ATOM     13  O1  <0> d          -1.953   1.198  -0.747  0.00  0.00    -0.400 OA
ATOM     14  H18 <0> d          -1.744   0.819  -1.612  0.00  0.00     0.209 HD
ENDBRANCH  10  13
ENDBRANCH   4  10
ENDBRANCH   1   4
BRANCH   1  15
ATOM     15  C4  <0> d          -0.886   1.768   4.010  0.00  0.00    -0.049 C 
ATOM     16  H7  <0> d          -0.818   2.841   3.828  0.00  0.00     0.038 H 
ATOM     17  H8  <0> d          -1.901   1.516   4.320  0.00  0.00     0.038 H 
BRANCH  15  18
ATOM     18  C5  <0> d           0.082   1.381   5.099  0.00  0.00    -0.101 C 
ATOM     19  C6  <0> d           0.762   2.306   5.729  0.00  0.00    -0.091 C 
ATOM     20  H9  <0> d           0.214   0.342   5.359  0.00  0.00     0.077 H 
BRANCH  19  21
ATOM     21  C7  <0> d           0.492   3.762   5.450  0.00  0.00    -0.055 C 
ATOM     22  H10 <0> d          -0.566   3.972   5.608  0.00  0.00     0.033 H 
ATOM     23  H11 <0> d           1.089   4.378   6.123  0.00  0.00     0.033 H 
ATOM     24  H12 <0> d           0.758   3.990   4.417  0.00  0.00     0.033 H 
ENDBRANCH  19  21
BRANCH  19  25
ATOM     25  C8  <0> d           1.816   1.914   6.733  0.00  0.00    -0.055 C 
ATOM     26  H13 <0> d           1.867   0.827   6.799  0.00  0.00     0.033 H 
ATOM     27  H14 <0> d           2.783   2.305   6.416  0.00  0.00     0.033 H 
ATOM     28  H15 <0> d           1.559   2.326   7.709  0.00  0.00     0.033 H 
ENDBRANCH  19  25
ENDBRANCH  15  18
ENDBRANCH   1  15
TORSDOF 8
