REMARK  3 active torsions:
REMARK  status: ('A' for Active; 'I' for Inactive)
REMARK    1  A    between atoms: C1_1  and  C2_2 
REMARK    2  A    between atoms: C4_5  and  S1_8 
REMARK    3  A    between atoms: S1_8  and  C5_9 
ROOT
ATOM      1  C2  <0> d           0.002  -0.004   0.002  0.00  0.00     0.070 A 
ATOM      2  C3  <0> d           0.006  -0.699  -1.199  0.00  0.00     0.030 A 
ATOM      3  N1  <0> d           0.025  -2.022  -1.172  0.00  0.00    -0.232 NA
ATOM      4  C4  <0> d           0.039  -2.650  -0.002  0.00  0.00     0.208 A 
ATOM      5  N2  <0> d           0.034  -1.965   1.135  0.00  0.00    -0.122 NA
ATOM      6  N3  <0> d           0.022  -0.678   1.139  0.00  0.00    -0.151 NA
ATOM      7  H4  <0> d          -0.006  -0.169  -2.140  0.00  0.00     0.118 H 
ENDROOT
BRANCH   4   8
ATOM      8  S1  <0> d           0.064  -4.412   0.041  0.00  0.00    -0.093 SA
BRANCH   8   9
ATOM      9  C5  <0> d           0.078  -4.807   1.812  0.00  0.00    -0.027 C 
ATOM     10  H5  <0> d           0.964  -4.372   2.274  0.00  0.00     0.042 H 
ATOM     11  H6  <0> d          -0.816  -4.397   2.283  0.00  0.00     0.042 H 
ATOM     12  H7  <0> d           0.093  -5.889   1.942  0.00  0.00     0.042 H 
ENDBRANCH   8   9
ENDBRANCH   4   8
BRANCH   1  13
ATOM     13  C1  <0> d          -0.018   1.503   0.010  0.00  0.00    -0.033 C 
ATOM     14  H1  <0> d           1.004   1.880   0.003  0.00  0.00     0.035 H 
ATOM     15  H2  <0> d          -0.545   1.864  -0.873  0.00  0.00     0.035 H 
ATOM     16  H3  <0> d          -0.529   1.854   0.907  0.00  0.00     0.035 H 
ENDBRANCH   1  13
TORSDOF 3
