REMARK  5 active torsions:
REMARK  status: ('A' for Active; 'I' for Inactive)
REMARK    1  A    between atoms: C1_1  and  C2_2 
REMARK    2  A    between atoms: C2_2  and  C3_3 
REMARK    3  A    between atoms: C3_3  and  C4_5 
REMARK    4  A    between atoms: C3_3  and  O1_12 
REMARK    5  A    between atoms: C7_8  and  C10_11 
ROOT
ATOM      1  C4  <0> d          -0.074   0.981   2.485  0.00  0.00    -0.030 A 
ATOM      2  C5  <0> d           1.041   1.583   3.037  0.00  0.00    -0.074 A 
ATOM      3  C6  <0> d           1.639   1.037   4.157  0.00  0.00    -0.077 A 
ATOM      4  C7  <0> d           1.129  -0.118   4.719  0.00  0.00    -0.062 A 
ATOM      5  C8  <0> d           0.017  -0.724   4.164  0.00  0.00    -0.077 A 
ATOM      6  C9  <0> d          -0.584  -0.175   3.047  0.00  0.00    -0.074 A 
ATOM      7  H7  <0> d           1.443   2.483   2.595  0.00  0.00     0.084 H 
ATOM      8  H8  <0> d           2.508   1.510   4.590  0.00  0.00     0.084 H 
ATOM      9  H9  <0> d          -0.382  -1.627   4.602  0.00  0.00     0.084 H 
ATOM     10  H10 <0> d          -1.453  -0.648   2.613  0.00  0.00     0.084 H 
ENDROOT
BRANCH   1  11
ATOM     11  C3  <0> d          -0.729   1.579   1.267  0.00  0.00     0.060 C 
ATOM     12  H1  <0> d          -1.776   1.277   1.232  0.00  0.00     0.090 H 
BRANCH  11  13
ATOM     13  C2  <0> d          -0.013   1.086   0.008  0.00  0.00    -0.041 C 
ATOM     14  H5  <0> d           0.002  -0.004   0.002  0.00  0.00     0.036 H 
ATOM     15  H6  <0> d           1.010   1.463   0.000  0.00  0.00     0.036 H 
BRANCH  13  16
ATOM     16  C1  <0> d          -0.753   1.593  -1.232  0.00  0.00    -0.074 C 
ATOM     17  H2  <0> d          -1.775   1.215  -1.224  0.00  0.00     0.027 H 
ATOM     18  H3  <0> d          -0.767   2.683  -1.226  0.00  0.00     0.027 H 
ATOM     19  H4  <0> d          -0.242   1.241  -2.128  0.00  0.00     0.027 H 
ENDBRANCH  13  16
ENDBRANCH  11  13
BRANCH  11  20
ATOM     20  O1  <0> d          -0.647   3.004   1.334  0.00  0.00    -0.391 OA
ATOM     21  H14 <0> d           0.258   3.345   1.368  0.00  0.00     0.210 HD
ENDBRANCH  11  20
ENDBRANCH   1  11
BRANCH   4  22
ATOM     22  C10 <0> d           1.784  -0.718   5.936  0.00  0.00    -0.051 C 
ATOM     23  H11 <0> d           2.552  -1.426   5.624  0.00  0.00     0.033 H 
ATOM     24  H12 <0> d           2.240   0.074   6.530  0.00  0.00     0.033 H 
ATOM     25  H13 <0> d           1.035  -1.235   6.535  0.00  0.00     0.033 H 
ENDBRANCH   4  22
TORSDOF 5
