REMARK  2 active torsions:
REMARK  status: ('A' for Active; 'I' for Inactive)
REMARK    1  A    between atoms: C2_4  and  O2_6 
REMARK    2  A    between atoms: O2_6  and  C3_7 
ROOT
ATOM      1  C3  <0> d          -0.018   1.468   0.010  0.00  0.00     0.107 C 
ATOM      2  C4  <0> d           0.002  -0.004   0.002  0.00  0.00     0.085 C 
ATOM      3  N3  <0> d           0.018  -1.140  -0.004  0.00  0.00    -0.195 NA
ATOM      4  H2  <0> d          -0.545   1.829  -0.873  0.00  0.00     0.098 H 
ATOM      5  H3  <0> d          -0.528   1.819   0.907  0.00  0.00     0.098 H 
ENDROOT
BRANCH   1   6
ATOM      6  O2  <0> d           1.323   1.962  -0.000  0.00  0.00    -0.300 OA
BRANCH   6   7
ATOM      7  C2  <0> d           1.482   3.307   0.006  0.00  0.00     0.313 A 
ATOM      8  N2  <0> d           0.526   4.201   0.020  0.00  0.00    -0.097 NA
ATOM      9  N1  <0> d           1.045   5.379   0.021  0.00  0.00    -0.134 NA
ATOM     10  C1  <0> d           2.342   5.282   0.008  0.00  0.00     0.128 A 
ATOM     11  O1  <0> d           2.651   3.971   0.004  0.00  0.00    -0.263 OA
ATOM     12  H1  <0> d           3.043   6.104   0.005  0.00  0.00     0.158 H 
ENDBRANCH   6   7
ENDBRANCH   1   6
TORSDOF 2
