REMARK  0 active torsions:
REMARK  status: ('A' for Active; 'I' for Inactive)
ROOT
ATOM      1  C1  <0> d          -0.647  -2.305  -0.005  0.00  0.00    -0.082 A 
ATOM      2  C2  <0> d           0.689  -2.682  -0.020  0.00  0.00    -0.080 A 
ATOM      3  C3  <0> d           1.686  -1.732  -0.024  0.00  0.00    -0.047 A 
ATOM      4  C4  <0> d           1.355  -0.382  -0.013  0.00  0.00     0.113 A 
ATOM      5  C5  <0> d           0.002  -0.004   0.002  0.00  0.00     0.019 A 
ATOM      6  C6  <0> d          -0.994  -0.983   0.006  0.00  0.00    -0.069 A 
ATOM      7  C7  <0> d          -0.018   1.462   0.010  0.00  0.00     0.041 A 
ATOM      8  N1  <0> d           1.215   1.867   0.001  0.00  0.00    -0.140 NA
ATOM      9  O1  <0> d           2.084   0.752  -0.014  0.00  0.00    -0.213 OA
ATOM     10  H1  <0> d          -1.418  -3.061  -0.002  0.00  0.00     0.083 H 
ATOM     11  H2  <0> d           0.948  -3.731  -0.029  0.00  0.00     0.083 H 
ATOM     12  H3  <0> d           2.723  -2.035  -0.035  0.00  0.00     0.087 H 
ATOM     13  H4  <0> d          -2.035  -0.697   0.018  0.00  0.00     0.085 H 
ATOM     14  H5  <0> d          -0.897   2.089   0.018  0.00  0.00     0.119 H 
ENDROOT
TORSDOF 0
