REMARK  1 active torsions:
REMARK  status: ('A' for Active; 'I' for Inactive)
REMARK    1  A    between atoms: C1_1  and  C2_2 
ROOT
ATOM      1  C2  <0> d          -1.005   2.334   0.019  0.00  0.00     0.082 A 
ATOM      2  C3  <0> d          -0.017   1.367   0.007  0.00  0.00     0.110 A 
ATOM      3  N1  <0> d           0.002  -0.004   0.004  0.00  0.00    -0.257 NA
ATOM      4  H1  <0> d           1.664   4.156   0.009  0.00  0.00     0.189 HD
ATOM      5  C4  <0> d           1.168  -0.669  -0.008  0.00  0.00     0.003 A 
ATOM      6  C5  <0> d           2.371  -0.006  -0.017  0.00  0.00    -0.064 A 
ATOM      7  C6  <0> d           2.412   1.381  -0.019  0.00  0.00    -0.052 A 
ATOM      8  C7  <0> d           1.208   2.091  -0.002  0.00  0.00     0.081 A 
ATOM      9  N2  <0> d           0.877   3.387   0.010  0.00  0.00    -0.276 N 
ATOM     10  N3  <0> d          -0.402   3.515   0.022  0.00  0.00    -0.177 NA
ATOM     11  H5  <0> d           1.173  -1.669  -0.010  0.00  0.00     0.114 H 
ATOM     12  H6  <0> d           3.222  -0.532  -0.025  0.00  0.00     0.085 H 
ATOM     13  H7  <0> d           3.293   1.855  -0.026  0.00  0.00     0.087 H 
ENDROOT
BRANCH   1  14
ATOM     14  C1  <0> d          -2.493   2.090   0.024  0.00  0.00    -0.032 C 
ATOM     15  H2  <0> d          -2.687   1.008   0.019  0.00  0.00     0.035 H 
ATOM     16  H3  <0> d          -2.942   2.547  -0.870  0.00  0.00     0.035 H 
ATOM     17  H4  <0> d          -2.934   2.538   0.926  0.00  0.00     0.035 H 
ENDBRANCH   1  14
TORSDOF 1
