REMARK  3 active torsions:
REMARK  status: ('A' for Active; 'I' for Inactive)
REMARK    1  A    between atoms: C1_1  and  O1_2 
REMARK    2  A    between atoms: O1_2  and  C2_3 
REMARK    3  A    between atoms: C5_6  and  N1_10 
ROOT
ATOM      1  C2  <0> d          -0.017   1.383   0.010  0.00  0.00     0.074 A 
ATOM      2  C3  <0> d           1.174   2.094   0.002  0.00  0.00    -0.011 A 
ATOM      3  C4  <0> d           2.382   1.420  -0.013  0.00  0.00     0.148 A 
ATOM      4  C5  <0> d           2.403   0.031  -0.021  0.00  0.00     0.104 A 
ATOM      5  C6  <0> d           1.209  -0.680  -0.014  0.00  0.00     0.148 A 
ATOM      6  C7  <0> d           0.002  -0.004   0.002  0.00  0.00    -0.011 A 
ATOM      7  F1  <0> d           1.227  -2.031  -0.021  0.00  0.00    -0.203 F 
ATOM      8  F2  <0> d           3.542   2.113  -0.020  0.00  0.00    -0.203 F 
ATOM      9  H4  <0> d           1.158   3.174   0.008  0.00  0.00     0.092 H 
ATOM     10  H5  <0> d          -0.926  -0.556   0.008  0.00  0.00     0.092 H 
ENDROOT
BRANCH   1  11
ATOM     11  O1  <0> d          -1.204   2.046   0.019  0.00  0.00    -0.356 OA
BRANCH  11  12
ATOM     12  C1  <0> d          -1.149   3.474   0.026  0.00  0.00     0.010 C 
ATOM     13  H1  <0> d          -0.618   3.812   0.916  0.00  0.00     0.066 H 
ATOM     14  H2  <0> d          -0.626   3.822  -0.864  0.00  0.00     0.066 H 
ATOM     15  H3  <0> d          -2.162   3.876   0.033  0.00  0.00     0.066 H 
ENDBRANCH  11  12
ENDBRANCH   1  11
BRANCH   4  16
ATOM     16  N1  <0> d           3.627  -0.653  -0.036  0.00  0.00    -0.394 N 
ATOM     17  H6  <0> d           3.641  -1.623  -0.042  0.00  0.00     0.156 HD
ATOM     18  H7  <0> d           4.460  -0.156  -0.042  0.00  0.00     0.156 HD
ENDBRANCH   4  16
TORSDOF 3
