REMARK  0 active torsions:
REMARK  status: ('A' for Active; 'I' for Inactive)
ROOT
ATOM      1  C1  <0> d          -0.018   1.514   0.010  0.00  0.00    -0.063 C 
ATOM      2  C2  <0> d           1.362   2.145   0.001  0.00  0.00    -0.057 C 
ATOM      3  C3  <0> d           2.077   1.865  -1.324  0.00  0.00     0.009 C 
ATOM      4  C4  <0> d           2.752   0.514  -1.228  0.00  0.00     0.217 C 
ATOM      5  O1  <0> d           3.961   0.446  -1.154  0.00  0.00    -0.274 OA
ATOM      6  N1  <0> d           2.023  -0.603  -1.226  0.00  0.00    -0.361 N 
ATOM      7  C5  <0> d           0.555  -0.535  -1.322  0.00  0.00    -0.005 C 
ATOM      8  C6  <0> d           0.002  -0.004   0.002  0.00  0.00    -0.050 C 
ATOM      9  H1  <0> d          -0.549   1.849   0.902  0.00  0.00     0.033 H 
ATOM     10  H2  <0> d          -0.566   1.859  -0.867  0.00  0.00     0.033 H 
ATOM     11  H3  <0> d           1.264   3.222   0.135  0.00  0.00     0.033 H 
ATOM     12  H4  <0> d           1.951   1.734   0.820  0.00  0.00     0.033 H 
ATOM     13  H5  <0> d           1.351   1.856  -2.137  0.00  0.00     0.047 H 
ATOM     14  H6  <0> d           2.825   2.637  -1.506  0.00  0.00     0.047 H 
ATOM     15  H7  <0> d           2.462  -1.465  -1.161  0.00  0.00     0.162 HD
ATOM     16  H8  <0> d           0.273   0.138  -2.132  0.00  0.00     0.064 H 
ATOM     17  H9  <0> d           0.155  -1.530  -1.513  0.00  0.00     0.064 H 
ATOM     18  H10 <0> d           0.629  -0.358   0.820  0.00  0.00     0.035 H 
ATOM     19  H11 <0> d          -1.013  -0.377   0.142  0.00  0.00     0.035 H 
ENDROOT
TORSDOF 0
