REMARK  0 active torsions:
REMARK  status: ('A' for Active; 'I' for Inactive)
ROOT
ATOM      1  C1  <0> d           1.125   1.964   0.002  0.00  0.00     0.232 A 
ATOM      2  N1  <0> d          -0.016   1.316   0.009  0.00  0.00    -0.197 NA
ATOM      3  C2  <0> d           0.002  -0.004   0.002  0.00  0.00     0.188 A 
ATOM      4  S1  <0> d           1.707  -0.328  -0.016  0.00  0.00     0.047 SA
ATOM      5  N2  <0> d           2.254   1.294  -0.013  0.00  0.00    -0.177 NA
ATOM      6 Cl1  <0> d          -1.327  -1.120   0.009  0.00  0.00    -0.053 Cl
ATOM      7 Cl2  <0> d           1.142   3.700   0.011  0.00  0.00    -0.041 Cl
ENDROOT
TORSDOF 0
