REMARK  5 active torsions:
REMARK  status: ('A' for Active; 'I' for Inactive)
REMARK    1  A    between atoms: C1_1  and  C2_2 
REMARK    2  A    between atoms: C2_2  and  C3_3 
REMARK    3  A    between atoms: C3_3  and  C4_4 
REMARK    4  A    between atoms: C6_8  and  C9_14 
REMARK    5  A    between atoms: C7_10  and  C8_13 
ROOT
ATOM      1  C4  <0> d          -2.880   1.543   2.537  0.00  0.00     0.131 C 
ATOM      2  H1  <0> d          -2.305   1.258   3.417  0.00  0.00     0.129 H 
ATOM      3  O1  <0> d          -3.003   2.967   2.488  0.00  0.00    -0.361 OA
ATOM      4  C5  <0> d          -3.687   3.525   3.614  0.00  0.00     0.028 C 
ATOM      5  C6  <0> d          -5.084   2.903   3.706  0.00  0.00    -0.012 C 
ATOM      6  H2  <0> d          -5.673   3.197   2.837  0.00  0.00     0.046 H 
ATOM      7  C7  <0> d          -4.946   1.377   3.740  0.00  0.00     0.043 C 
ATOM      8  H3  <0> d          -4.437   1.076   4.655  0.00  0.00     0.083 H 
ATOM      9  O2  <0> d          -4.182   0.955   2.606  0.00  0.00    -0.356 OA
ATOM     10  H11 <0> d          -3.775   4.604   3.488  0.00  0.00     0.075 H 
ATOM     11  H12 <0> d          -3.130   3.309   4.526  0.00  0.00     0.075 H 
ENDROOT
BRANCH   1  12
ATOM     12  C3  <0> d          -2.164   1.050   1.278  0.00  0.00    -0.019 C 
ATOM     13  H9  <0> d          -2.691   1.411   0.395  0.00  0.00     0.040 H 
ATOM     14  H10 <0> d          -2.149  -0.040   1.272  0.00  0.00     0.040 H 
BRANCH  12  15
ATOM     15  C2  <0> d          -0.729   1.579   1.267  0.00  0.00    -0.064 C 
ATOM     16  H7  <0> d          -0.202   1.218   2.150  0.00  0.00     0.032 H 
ATOM     17  H8  <0> d          -0.744   2.669   1.273  0.00  0.00     0.032 H 
BRANCH  15  18
ATOM     18  C1  <0> d          -0.013   1.086   0.008  0.00  0.00    -0.076 C 
ATOM     19  H4  <0> d           0.002  -0.004   0.002  0.00  0.00     0.027 H 
ATOM     20  H5  <0> d           1.010   1.463   0.000  0.00  0.00     0.027 H 
ATOM     21  H6  <0> d          -0.540   1.447  -0.875  0.00  0.00     0.027 H 
ENDBRANCH  15  18
ENDBRANCH  12  15
ENDBRANCH   1  12
BRANCH   7  22
ATOM     22  C8  <0> d          -6.333   0.735   3.690  0.00  0.00    -0.052 C 
ATOM     23  H13 <0> d          -6.233  -0.350   3.704  0.00  0.00     0.030 H 
ATOM     24  H14 <0> d          -6.914   1.058   4.554  0.00  0.00     0.030 H 
ATOM     25  H15 <0> d          -6.843   1.041   2.776  0.00  0.00     0.030 H 
ENDBRANCH   7  22
BRANCH   5  26
ATOM     26  C9  <0> d          -5.776   3.383   4.983  0.00  0.00    -0.069 C 
ATOM     27  H16 <0> d          -5.182   3.093   5.850  0.00  0.00     0.028 H 
ATOM     28  H17 <0> d          -5.874   4.469   4.957  0.00  0.00     0.028 H 
ATOM     29  H18 <0> d          -6.766   2.931   5.053  0.00  0.00     0.028 H 
ENDBRANCH   5  26
TORSDOF 5
