REMARK  1 active torsions:
REMARK  status: ('A' for Active; 'I' for Inactive)
REMARK    1  A    between atoms: C1_1  and  N1_2 
ROOT
ATOM      1  N1  <0> d           2.297   1.433  -0.012  0.00  0.00    -0.313 N 
ATOM      2  C2  <0> d           1.088   2.029   0.003  0.00  0.00     0.068 A 
ATOM      3  N2  <0> d          -0.016   1.331   0.009  0.00  0.00    -0.256 NA
ATOM      4  C3  <0> d           0.002  -0.004   0.002  0.00  0.00     0.009 A 
ATOM      5  C4  <0> d           1.192  -0.667  -0.013  0.00  0.00    -0.000 A 
ATOM      6  C5  <0> d           2.384   0.086  -0.020  0.00  0.00     0.249 A 
ATOM      7  O1  <0> d           3.471  -0.468  -0.033  0.00  0.00    -0.268 OA
ATOM      8  H4  <0> d           1.031   3.107   0.009  0.00  0.00     0.143 H 
ATOM      9  H5  <0> d          -0.925  -0.557   0.007  0.00  0.00     0.115 H 
ATOM     10  H6  <0> d           1.221  -1.747  -0.019  0.00  0.00     0.094 H 
ENDROOT
BRANCH   1  11
ATOM     11  C1  <0> d           3.515   2.247  -0.019  0.00  0.00    -0.010 C 
ATOM     12  H1  <0> d           3.808   2.454  -1.048  0.00  0.00     0.057 H 
ATOM     13  H2  <0> d           3.328   3.186   0.502  0.00  0.00     0.057 H 
ATOM     14  H3  <0> d           4.316   1.706   0.485  0.00  0.00     0.057 H 
ENDBRANCH   1  11
TORSDOF 1
