REMARK  1 active torsions:
REMARK  status: ('A' for Active; 'I' for Inactive)
REMARK    1  A    between atoms: C3_3  and  C7_9 
ROOT
ATOM      1  C1  <0> d          -1.760   3.493   0.067  0.00  0.00    -0.058 C 
ATOM      2  C2  <0> d          -0.902   3.118  -1.143  0.00  0.00    -0.052 C 
ATOM      3  C3  <0> d          -0.761   1.597  -1.227  0.00  0.00     0.037 C 
ATOM      4  H1  <0> d          -1.751   1.142  -1.267  0.00  0.00     0.057 H 
ATOM      5  C4  <0> d          -0.013   1.086   0.008  0.00  0.00     0.003 C 
ATOM      6  C5  <0> d          -0.728   1.577   1.247  0.00  0.00     0.127 C 
ATOM      7  O1  <0> d          -1.040   0.812   2.127  0.00  0.00    -0.298 OA
ATOM      8  C6  <0> d          -1.049   3.053   1.351  0.00  0.00    -0.010 C 
ATOM      9  H2  <0> d          -1.909   4.572   0.086  0.00  0.00     0.033 H 
ATOM     10  H3  <0> d          -2.726   2.993  -0.003  0.00  0.00     0.033 H 
ATOM     11  H4  <0> d           0.085   3.568  -1.040  0.00  0.00     0.034 H 
ATOM     12  H5  <0> d          -1.377   3.489  -2.051  0.00  0.00     0.034 H 
ATOM     13  H6  <0> d           0.004   0.086  -0.002  0.00  0.00     0.045 H 
ATOM     14  H7  <0> d           1.009   1.466   0.000  0.00  0.00     0.045 H 
ATOM     15  H8  <0> d          -0.205   3.578   1.462  0.00  0.00     0.044 H 
ATOM     16  H9  <0> d          -1.699   3.227   2.208  0.00  0.00     0.044 H 
ENDROOT
BRANCH   3  17
ATOM     17  C7  <0> d           0.010   1.232  -2.469  0.00  0.00     0.177 C 
ATOM     18  O2  <0> d           0.405   2.099  -3.212  0.00  0.00    -0.648 OA
ATOM     19  O3  <0> d           0.258  -0.057  -2.751  0.00  0.00    -0.648 OA
ENDBRANCH   3  17
TORSDOF 1
