REMARK  4 active torsions:
REMARK  status: ('A' for Active; 'I' for Inactive)
REMARK    1  A    between atoms: C1_1  and  C2_2 
REMARK    2  A    between atoms: C2_2  and  C3_3 
REMARK    3  A    between atoms: C3_3  and  C4_4 
REMARK    4  A    between atoms: N1_10  and  C8_11 
ROOT
ATOM      1  C4  <0> d          -1.284  -2.065   0.046  0.00  0.00     0.014 C 
ATOM      2  H1  <0> d          -0.694  -2.385   0.905  0.00  0.00     0.072 H 
ATOM      3  C5  <0> d          -2.680  -2.724   0.082  0.00  0.00    -0.038 C 
ATOM      4  C6  <0> d          -2.458  -3.981  -0.792  0.00  0.00     0.011 C 
ATOM      5  C7  <0> d          -1.298  -3.608  -1.689  0.00  0.00     0.219 C 
ATOM      6  O1  <0> d          -0.988  -4.196  -2.704  0.00  0.00    -0.273 OA
ATOM      7  N1  <0> d          -0.660  -2.530  -1.199  0.00  0.00    -0.352 N 
ATOM      8  H9  <0> d          -2.955  -3.001   1.100  0.00  0.00     0.036 H 
ATOM      9  H10 <0> d          -3.432  -2.070  -0.360  0.00  0.00     0.036 H 
ATOM     10  H11 <0> d          -2.198  -4.837  -0.169  0.00  0.00     0.047 H 
ATOM     11  H12 <0> d          -3.346  -4.195  -1.385  0.00  0.00     0.047 H 
ENDROOT
BRANCH   1  12
ATOM     12  C3  <0> d          -1.418  -0.541   0.035  0.00  0.00    -0.046 C 
ATOM     13  H7  <0> d          -2.102  -0.243  -0.760  0.00  0.00     0.035 H 
ATOM     14  H8  <0> d          -0.440  -0.091  -0.140  0.00  0.00     0.035 H 
BRANCH  12  15
ATOM     15  C2  <0> d          -1.964  -0.067   1.383  0.00  0.00    -0.067 C 
ATOM     16  H5  <0> d          -1.329  -0.443   2.185  0.00  0.00     0.032 H 
ATOM     17  H6  <0> d          -2.978  -0.441   1.516  0.00  0.00     0.032 H 
BRANCH  15  18
ATOM     18  C1  <0> d          -1.976   1.463   1.418  0.00  0.00    -0.076 C 
ATOM     19  H2  <0> d          -2.365   1.801   2.379  0.00  0.00     0.027 H 
ATOM     20  H3  <0> d          -0.961   1.838   1.285  0.00  0.00     0.027 H 
ATOM     21  H4  <0> d          -2.611   1.840   0.616  0.00  0.00     0.027 H 
ENDBRANCH  15  18
ENDBRANCH  12  15
ENDBRANCH   1  12
BRANCH   7  22
ATOM     22  C8  <0> d           0.504  -1.899  -1.826  0.00  0.00    -0.016 C 
ATOM     23  H13 <0> d           1.411  -2.407  -1.500  0.00  0.00     0.056 H 
ATOM     24  H14 <0> d           0.416  -1.972  -2.910  0.00  0.00     0.056 H 
ATOM     25  H15 <0> d           0.550  -0.850  -1.534  0.00  0.00     0.056 H 
ENDBRANCH   7  22
TORSDOF 4
