REMARK  0 active torsions:
REMARK  status: ('A' for Active; 'I' for Inactive)
ROOT
ATOM      1  C1  <0> d           1.242  -0.671  -0.013  0.00  0.00    -0.040 A 
ATOM      2  C2  <0> d           2.386   0.046  -0.021  0.00  0.00    -0.018 A 
ATOM      3  N1  <0> d           2.363   1.407  -0.013  0.00  0.00    -0.332 N 
ATOM      4  H1  <0> d           3.226   1.912  -0.017  0.00  0.00     0.168 HD
ATOM      5  C3  <0> d           1.199   2.086   0.002  0.00  0.00     0.274 A 
ATOM      6  O1  <0> d           1.202   3.307   0.008  0.00  0.00    -0.266 OA
ATOM      7  C4  <0> d          -0.017   1.384   0.010  0.00  0.00     0.132 A 
ATOM      8  C5  <0> d           0.002  -0.004   0.002  0.00  0.00     0.070 A 
ATOM      9  N2  <0> d          -1.312  -0.428   0.013  0.00  0.00    -0.306 N 
ATOM     10  H2  <0> d          -1.609  -1.352   0.011  0.00  0.00     0.171 HD
ATOM     11  C6  <0> d          -2.112   0.655   0.027  0.00  0.00     0.325 A 
ATOM     12  O2  <0> d          -3.329   0.630   0.039  0.00  0.00    -0.247 OA
ATOM     13  N3  <0> d          -1.356   1.770   0.030  0.00  0.00    -0.302 N 
ATOM     14  H3  <0> d          -1.686   2.683   0.040  0.00  0.00     0.171 HD
ATOM     15  H4  <0> d           1.278  -1.751  -0.019  0.00  0.00     0.089 H 
ATOM     16  H5  <0> d           3.335  -0.469  -0.032  0.00  0.00     0.111 H 
ENDROOT
TORSDOF 0
