REMARK  5 active torsions:
REMARK  status: ('A' for Active; 'I' for Inactive)
REMARK    1  A    between atoms: C1_1  and  C2_2 
REMARK    2  A    between atoms: C2_2  and  C3_3 
REMARK    3  A    between atoms: C4_4  and  C5_5 
REMARK    4  A    between atoms: C6_6  and  C7_7 
REMARK    5  A    between atoms: C7_7  and  C8_8 
ROOT
ATOM      1  C3  <0> d           0.707  -0.490  -1.238  0.00  0.00    -0.096 C 
ATOM      2  C4  <0> d           1.739  -1.321  -1.133  0.00  0.00    -0.036 C 
ATOM      3  H6  <0> d           0.374  -0.163  -2.212  0.00  0.00     0.077 H 
ATOM      4  H7  <0> d           2.245  -1.669  -2.021  0.00  0.00     0.097 H 
ENDROOT
BRANCH   2   5
ATOM      5  C5  <0> d           2.181  -1.754   0.159  0.00  0.00    -0.079 C 
ATOM      6  C6  <0> d           2.543  -2.109   1.217  0.00  0.00    -0.102 C 
BRANCH   6   7
ATOM      7  C7  <0> d           2.998  -2.554   2.545  0.00  0.00    -0.012 C 
ATOM      8  H8  <0> d           3.295  -1.688   3.136  0.00  0.00     0.051 H 
ATOM      9  H9  <0> d           2.186  -3.077   3.050  0.00  0.00     0.051 H 
BRANCH   7  10
ATOM     10  C8  <0> d           4.192  -3.497   2.385  0.00  0.00    -0.067 C 
ATOM     11  H10 <0> d           3.894  -4.363   1.794  0.00  0.00     0.028 H 
ATOM     12  H11 <0> d           5.003  -2.974   1.880  0.00  0.00     0.028 H 
ATOM     13  H12 <0> d           4.528  -3.827   3.369  0.00  0.00     0.028 H 
ENDBRANCH   7  10
ENDBRANCH   6   7
ENDBRANCH   2   5
BRANCH   1  14
ATOM     14  C2  <0> d           0.002  -0.004   0.002  0.00  0.00    -0.053 C 
ATOM     15  H4  <0> d           0.529  -0.365   0.885  0.00  0.00     0.038 H 
ATOM     16  H5  <0> d          -1.020  -0.381   0.010  0.00  0.00     0.038 H 
BRANCH  14  17
ATOM     17  C1  <0> d          -0.019   1.526   0.010  0.00  0.00    -0.073 C 
ATOM     18  H1  <0> d           1.004   1.903   0.003  0.00  0.00     0.027 H 
ATOM     19  H2  <0> d          -0.546   1.887  -0.873  0.00  0.00     0.027 H 
ATOM     20  H3  <0> d          -0.529   1.877   0.907  0.00  0.00     0.027 H 
ENDBRANCH  14  17
ENDBRANCH   1  14
TORSDOF 5
