REMARK  4 active torsions:
REMARK  status: ('A' for Active; 'I' for Inactive)
REMARK    1  A    between atoms: C1_1  and  C2_2 
REMARK    2  A    between atoms: C5_5  and  C8_9 
REMARK    3  A    between atoms: C7_7  and  N1_8 
REMARK    4  A    between atoms: C8_9  and  O1_10 
ROOT
ATOM      1  C2  <0> d          -2.009   2.473   3.526  0.00  0.00    -0.036 A 
ATOM      2  C3  <0> d          -1.008   3.232   2.953  0.00  0.00    -0.074 A 
ATOM      3  C4  <0> d          -0.359   2.780   1.818  0.00  0.00    -0.074 A 
ATOM      4  C5  <0> d          -0.718   1.572   1.248  0.00  0.00    -0.033 A 
ATOM      5  C6  <0> d          -1.718   0.808   1.817  0.00  0.00    -0.049 A 
ATOM      6  C7  <0> d          -2.368   1.257   2.959  0.00  0.00     0.032 A 
ATOM      7  H4  <0> d          -0.728   4.178   3.393  0.00  0.00     0.084 H 
ATOM      8  H5  <0> d           0.427   3.373   1.374  0.00  0.00     0.084 H 
ATOM      9  H6  <0> d          -1.995  -0.137   1.373  0.00  0.00     0.087 H 
ENDROOT
BRANCH   4  10
ATOM     10  C8  <0> d          -0.013   1.086   0.008  0.00  0.00     0.041 C 
ATOM     11  H9  <0> d           0.002  -0.004   0.002  0.00  0.00     0.081 H 
ATOM     12  H10 <0> d           1.010   1.463   0.000  0.00  0.00     0.081 H 
BRANCH  10  13
ATOM     13  O1  <0> d          -0.704   1.559  -1.150  0.00  0.00    -0.396 OA
ATOM     14  H11 <0> d          -0.304   1.284  -1.986  0.00  0.00     0.209 HD
ENDBRANCH  10  13
ENDBRANCH   4  10
BRANCH   6  15
ATOM     15  N1  <0> d          -3.380   0.487   3.537  0.00  0.00    -0.399 N 
ATOM     16  H7  <0> d          -3.631  -0.362   3.140  0.00  0.00     0.156 HD
ATOM     17  H8  <0> d          -3.833   0.802   4.335  0.00  0.00     0.156 HD
ENDBRANCH   6  15
BRANCH   1  18
ATOM     18  C1  <0> d          -2.711   2.964   4.766  0.00  0.00    -0.049 C 
ATOM     19  H1  <0> d          -2.184   2.604   5.649  0.00  0.00     0.033 H 
ATOM     20  H2  <0> d          -2.723   4.054   4.769  0.00  0.00     0.033 H 
ATOM     21  H3  <0> d          -3.735   2.589   4.776  0.00  0.00     0.033 H 
ENDBRANCH   1  18
TORSDOF 4
