REMARK  5 active torsions:
REMARK  status: ('A' for Active; 'I' for Inactive)
REMARK    1  A    between atoms: C1_1  and  C2_2 
REMARK    2  A    between atoms: C2_2  and  O1_3 
REMARK    3  A    between atoms: O1_3  and  C3_4 
REMARK    4  A    between atoms: C6_7  and  N1_11 
REMARK    5  A    between atoms: C7_8  and  C9_10 
ROOT
ATOM      1  C3  <0> d           1.186   2.059   0.002  0.00  0.00     0.069 A 
ATOM      2  C4  <0> d           2.359   1.319  -0.008  0.00  0.00    -0.049 A 
ATOM      3  C5  <0> d           3.581   1.961  -0.022  0.00  0.00    -0.055 A 
ATOM      4  C6  <0> d           3.636   3.349  -0.014  0.00  0.00     0.031 A 
ATOM      5  C7  <0> d           2.461   4.089   0.001  0.00  0.00    -0.033 A 
ATOM      6  C8  <0> d           1.239   3.444   0.009  0.00  0.00    -0.043 A 
ATOM      7  H6  <0> d           2.317   0.239  -0.009  0.00  0.00     0.087 H 
ATOM      8  H7  <0> d           4.495   1.385  -0.033  0.00  0.00     0.087 H 
ATOM      9  H8  <0> d           0.325   4.020   0.021  0.00  0.00     0.088 H 
ENDROOT
BRANCH   1  10
ATOM     10  O1  <0> d          -0.017   1.425   0.010  0.00  0.00    -0.351 OA
BRANCH  10  11
ATOM     11  C2  <0> d           0.002  -0.004   0.002  0.00  0.00     0.023 C 
ATOM     12  H4  <0> d           0.512  -0.356  -0.895  0.00  0.00     0.074 H 
ATOM     13  H5  <0> d           0.529  -0.365   0.885  0.00  0.00     0.074 H 
BRANCH  11  14
ATOM     14  C1  <0> d          -1.433  -0.534   0.013  0.00  0.00    -0.056 C 
ATOM     15  H1  <0> d          -1.419  -1.623   0.007  0.00  0.00     0.030 H 
ATOM     16  H2  <0> d          -1.944  -0.182   0.910  0.00  0.00     0.030 H 
ATOM     17  H3  <0> d          -1.960  -0.173  -0.870  0.00  0.00     0.030 H 
ENDBRANCH  11  14
ENDBRANCH  10  11
ENDBRANCH   1  10
BRANCH   5  18
ATOM     18  C9  <0> d           2.519   5.595   0.009  0.00  0.00    -0.049 C 
ATOM     19  H9  <0> d           2.542   5.952   1.038  0.00  0.00     0.033 H 
ATOM     20  H10 <0> d           3.417   5.927  -0.512  0.00  0.00     0.033 H 
ATOM     21  H11 <0> d           1.639   5.995  -0.495  0.00  0.00     0.033 H 
ENDBRANCH   5  18
BRANCH   4  22
ATOM     22  N1  <0> d           4.874   4.001  -0.022  0.00  0.00    -0.399 N 
ATOM     23  H12 <0> d           4.911   4.971  -0.018  0.00  0.00     0.156 HD
ATOM     24  H13 <0> d           5.694   3.484  -0.033  0.00  0.00     0.156 HD
ENDBRANCH   4  22
TORSDOF 5
