REMARK  2 active torsions:
REMARK  status: ('A' for Active; 'I' for Inactive)
REMARK    1  A    between atoms: C1_1  and  N1_2 
REMARK    2  A    between atoms: N2_5  and  C7_11 
ROOT
ATOM      1  N1  <0> d           0.002  -0.004   0.002  0.00  0.00     0.089 N 
ATOM      2  C2  <0> d          -1.360  -0.549  -0.079  0.00  0.00     0.138 C 
ATOM      3  C3  <0> d          -1.292  -2.075  -0.165  0.00  0.00     0.139 C 
ATOM      4  N2  <0> d          -0.588  -2.599   1.014  0.00  0.00     0.105 N 
ATOM      5  C4  <0> d           0.774  -2.054   1.095  0.00  0.00     0.241 C 
ATOM      6  H1  <0> d           1.335  -2.344   0.206  0.00  0.00     0.115 H 
ATOM      7  C5  <0> d           0.706  -0.528   1.181  0.00  0.00     0.154 C 
ATOM      8  C6  <0> d           1.445  -2.585   2.293  0.00  0.00     0.097 C 
ATOM      9  N3  <0> d           1.963  -2.994   3.217  0.00  0.00    -0.195 NA
ATOM     10  H5  <0> d          -1.921  -0.259   0.810  0.00  0.00     0.082 H 
ATOM     11  H6  <0> d          -1.857  -0.156  -0.966  0.00  0.00     0.082 H 
ATOM     12  H7  <0> d          -2.303  -2.483  -0.196  0.00  0.00     0.082 H 
ATOM     13  H8  <0> d          -0.755  -2.365  -1.068  0.00  0.00     0.082 H 
ATOM     14  H9  <0> d           1.717  -0.120   1.212  0.00  0.00     0.084 H 
ATOM     15  H10 <0> d           0.169  -0.238   2.084  0.00  0.00     0.084 H 
ENDROOT
BRANCH   4  16
ATOM     16  C7  <0> d          -0.568  -4.068   1.006  0.00  0.00     0.097 C 
ATOM     17  H11 <0> d           0.003  -4.419   0.146  0.00  0.00     0.071 H 
ATOM     18  H12 <0> d          -0.103  -4.430   1.923  0.00  0.00     0.071 H 
ATOM     19  H13 <0> d          -1.589  -4.445   0.943  0.00  0.00     0.071 H 
ENDBRANCH   4  16
BRANCH   1  20
ATOM     20  C1  <0> d          -0.018   1.465   0.010  0.00  0.00     0.095 C 
ATOM     21  H2  <0> d           1.005   1.842   0.002  0.00  0.00     0.071 H 
ATOM     22  H3  <0> d          -0.545   1.826  -0.873  0.00  0.00     0.071 H 
ATOM     23  H4  <0> d          -0.528   1.816   0.907  0.00  0.00     0.071 H 
ENDBRANCH   1  20
TORSDOF 2
