REMARK  2 active torsions:
REMARK  status: ('A' for Active; 'I' for Inactive)
REMARK    1  A    between atoms: C1_1  and  C2_2 
REMARK    2  A    between atoms: C4_5  and  N2_11 
ROOT
ATOM      1  C2  <0> d           4.450   0.747  -0.037  0.00  0.00     0.143 A 
ATOM      2  N1  <0> d           3.721  -0.328  -0.035  0.00  0.00    -0.224 NA
ATOM      3  C3  <0> d           2.409   0.032  -0.021  0.00  0.00     0.119 A 
ATOM      4  C4  <0> d           1.206  -0.686  -0.013  0.00  0.00     0.057 A 
ATOM      5  C5  <0> d           0.002  -0.004   0.002  0.00  0.00    -0.055 A 
ATOM      6  C6  <0> d          -0.017   1.382   0.010  0.00  0.00    -0.078 A 
ATOM      7  C7  <0> d           1.161   2.099   0.002  0.00  0.00    -0.048 A 
ATOM      8  C8  <0> d           2.379   1.433  -0.013  0.00  0.00     0.108 A 
ATOM      9  O1  <0> d           3.668   1.839  -0.023  0.00  0.00    -0.294 OA
ATOM     10  H4  <0> d          -0.927  -0.554   0.008  0.00  0.00     0.087 H 
ATOM     11  H5  <0> d          -0.962   1.905   0.017  0.00  0.00     0.083 H 
ATOM     12  H6  <0> d           1.136   3.179   0.008  0.00  0.00     0.087 H 
ENDROOT
BRANCH   1  13
ATOM     13  C1  <0> d           5.957   0.766  -0.051  0.00  0.00    -0.015 C 
ATOM     14  H1  <0> d           6.307   1.798  -0.049  0.00  0.00     0.038 H 
ATOM     15  H2  <0> d           6.335   0.252   0.832  0.00  0.00     0.038 H 
ATOM     16  H3  <0> d           6.318   0.262  -0.948  0.00  0.00     0.038 H 
ENDBRANCH   1  13
BRANCH   4  17
ATOM     17  N2  <0> d           1.222  -2.083  -0.020  0.00  0.00    -0.397 N 
ATOM     18  H7  <0> d           0.387  -2.577  -0.015  0.00  0.00     0.156 HD
ATOM     19  H8  <0> d           2.067  -2.558  -0.031  0.00  0.00     0.156 HD
ENDBRANCH   4  17
TORSDOF 2
