REMARK  0 active torsions:
REMARK  status: ('A' for Active; 'I' for Inactive)
ROOT
ATOM      1  C1  <0> d          -0.017   1.381   0.010  0.00  0.00    -0.079 A 
ATOM      2  C2  <0> d           1.194   2.058   0.002  0.00  0.00    -0.066 A 
ATOM      3  C3  <0> d           2.371   1.335  -0.013  0.00  0.00     0.004 A 
ATOM      4  N1  <0> d           2.352   0.016  -0.021  0.00  0.00    -0.249 NA
ATOM      5  C4  <0> d           1.220  -0.662  -0.014  0.00  0.00     0.125 A 
ATOM      6  C5  <0> d           0.002  -0.004   0.002  0.00  0.00    -0.044 A 
ATOM      7 Cl1  <0> d           1.258  -2.397  -0.024  0.00  0.00    -0.062 Cl
ATOM      8  H1  <0> d          -0.952   1.921   0.026  0.00  0.00     0.083 H 
ATOM      9  H2  <0> d           1.216   3.138   0.007  0.00  0.00     0.085 H 
ATOM     10  H3  <0> d           3.317   1.855  -0.020  0.00  0.00     0.114 H 
ATOM     11  H4  <0> d          -0.922  -0.564   0.008  0.00  0.00     0.088 H 
ENDROOT
TORSDOF 0
