REMARK  1 active torsions:
REMARK  status: ('A' for Active; 'I' for Inactive)
REMARK    1  A    between atoms: C6_7  and  N2_10 
ROOT
ATOM      1  C1  <0> d          -2.727  -0.478   0.013  0.00  0.00    -0.053 A 
ATOM      2  C2  <0> d          -4.005  -0.945   0.017  0.00  0.00     0.003 A 
ATOM      3  N1  <0> d          -5.054  -0.140   0.026  0.00  0.00    -0.272 NA
ATOM      4  C3  <0> d          -4.913   1.174   0.032  0.00  0.00     0.019 A 
ATOM      5  C4  <0> d          -3.655   1.729   0.029  0.00  0.00     0.035 A 
ATOM      6  C5  <0> d          -2.494   0.919   0.019  0.00  0.00     0.010 A 
ATOM      7  C6  <0> d          -1.240   1.653   0.017  0.00  0.00     0.044 A 
ATOM      8  C7  <0> d          -1.268   2.999   0.030  0.00  0.00    -0.018 A 
ATOM      9  S1  <0> d          -3.010   3.380   0.035  0.00  0.00    -0.098 SA
ATOM     10  H1  <0> d          -1.896  -1.168   0.005  0.00  0.00     0.087 H 
ATOM     11  H2  <0> d          -4.168  -2.013   0.013  0.00  0.00     0.114 H 
ATOM     12  H3  <0> d          -5.785   1.811   0.040  0.00  0.00     0.116 H 
ATOM     13  H4  <0> d          -0.434   3.685   0.035  0.00  0.00     0.098 H 
ENDROOT
BRANCH   7  14
ATOM     14  N2  <0> d          -0.011   0.966   0.007  0.00  0.00    -0.398 N 
ATOM     15  H5  <0> d           0.934   1.529   0.006  0.00  0.00     0.156 HD
ATOM     16  H6  <0> d           0.004  -0.134   0.001  0.00  0.00     0.156 HD
ENDBRANCH   7  14
TORSDOF 1
