REMARK  2 active torsions:
REMARK  status: ('A' for Active; 'I' for Inactive)
REMARK    1  A    between atoms: C1_1  and  C2_2 
REMARK    2  A    between atoms: C2_2  and  C3_3 
ROOT
ATOM      1  C3  <0> d           0.731  -0.503   1.223  0.00  0.00     0.012 A 
ATOM      2  C4  <0> d           2.097  -0.710   1.176  0.00  0.00    -0.071 A 
ATOM      3  C5  <0> d           2.766  -1.167   2.296  0.00  0.00    -0.082 A 
ATOM      4  C6  <0> d           2.068  -1.419   3.463  0.00  0.00    -0.083 A 
ATOM      5  C7  <0> d           0.702  -1.212   3.510  0.00  0.00    -0.082 A 
ATOM      6  C8  <0> d           0.034  -0.750   2.391  0.00  0.00    -0.071 A 
ATOM      7  H4  <0> d           2.642  -0.513   0.265  0.00  0.00     0.084 H 
ATOM      8  H5  <0> d           3.833  -1.329   2.259  0.00  0.00     0.083 H 
ATOM      9  H6  <0> d           2.590  -1.777   4.338  0.00  0.00     0.083 H 
ATOM     10  H7  <0> d           0.157  -1.408   4.421  0.00  0.00     0.083 H 
ATOM     11  H8  <0> d          -1.032  -0.584   2.429  0.00  0.00     0.084 H 
ENDROOT
BRANCH   1  12
ATOM     12  C2  <0> d           0.002  -0.004   0.002  0.00  0.00     0.267 C 
ATOM     13  F1  <0> d          -1.310  -0.488   0.012  0.00  0.00    -0.201 F 
ATOM     14  F2  <0> d           0.657  -0.455  -1.149  0.00  0.00    -0.201 F 
BRANCH  12  15
ATOM     15  C1  <0> d          -0.019   1.526   0.010  0.00  0.00    -0.012 C 
ATOM     16  H1  <0> d           1.004   1.903   0.003  0.00  0.00     0.036 H 
ATOM     17  H2  <0> d          -0.546   1.887  -0.873  0.00  0.00     0.036 H 
ATOM     18  H3  <0> d          -0.529   1.877   0.907  0.00  0.00     0.036 H 
ENDBRANCH  12  15
ENDBRANCH   1  12
TORSDOF 2
