REMARK  3 active torsions:
REMARK  status: ('A' for Active; 'I' for Inactive)
REMARK    1  A    between atoms: C1_1  and  C2_2 
REMARK    2  A    between atoms: C2_2  and  C4_5 
REMARK    3  A    between atoms: C2_2  and  N2_8 
ROOT
ATOM      1  C2  <0> d          -0.795   1.527  -1.120  0.00  0.00     0.242 C 
ATOM      2  C3  <0> d          -0.199   1.070  -2.385  0.00  0.00     0.101 C 
ATOM      3  N1  <0> d           0.261   0.717  -3.362  0.00  0.00    -0.195 NA
ENDROOT
BRANCH   1   4
ATOM      4  C1  <0> d          -0.793   3.056  -1.078  0.00  0.00    -0.030 C 
ATOM      5  H1  <0> d          -1.239   3.398  -0.132  0.00  0.00     0.032 H 
ATOM      6  H2  <0> d          -1.380   3.447  -1.922  0.00  0.00     0.032 H 
ATOM      7  H3  <0> d           0.241   3.423  -1.149  0.00  0.00     0.032 H 
ENDBRANCH   1   4
BRANCH   1   8
ATOM      8  C4  <0> d          -2.234   1.016  -1.020  0.00  0.00    -0.007 A 
ATOM      9  C6  <0> d          -2.450  -0.498  -1.043  0.00  0.00    -0.058 A 
ATOM     10  C5  <0> d          -2.636   0.282   0.260  0.00  0.00    -0.058 A 
ATOM     11  H7  <0> d          -3.252  -0.744  -1.754  0.00  0.00     0.033 H 
ATOM     12  H8  <0> d          -1.519  -0.996  -1.354  0.00  0.00     0.033 H 
ATOM     13  H5  <0> d          -1.861   0.429   1.026  0.00  0.00     0.033 H 
ATOM     14  H6  <0> d          -3.594   0.681   0.627  0.00  0.00     0.033 H 
ATOM     15  H4  <0> d          -2.637   1.868  -1.588  0.00  0.00     0.045 H 
ENDBRANCH   1   8
BRANCH   1  16
ATOM     16  N2  <0> d          -0.012   1.005   0.008  0.00  0.00     0.102 N 
ATOM     17  H9  <0> d          -0.013  -0.095  -0.023  0.00  0.00     0.315 HD
ATOM     18  H10 <0> d           1.023   1.372  -0.064  0.00  0.00     0.315 HD
ENDBRANCH   1  16
TORSDOF 3
