REMARK  3 active torsions:
REMARK  status: ('A' for Active; 'I' for Inactive)
REMARK    1  A    between atoms: C1_1  and  C2_2 
REMARK    2  A    between atoms: C5_6  and  C7_9 
REMARK    3  A    between atoms: C5_6  and  C8_10 
ROOT
ATOM      1  C2  <0> d          -0.013   1.086   0.008  0.00  0.00     0.001 C 
ATOM      2  H1  <0> d          -0.008   0.086  -0.011  0.00  0.00     0.051 H 
ATOM      3  C3  <0> d           1.431   1.647  -0.003  0.00  0.00    -0.055 C 
ATOM      4  C4  <0> d           1.244   3.056   0.614  0.00  0.00    -0.051 C 
ATOM      5  C5  <0> d           0.166   2.842   1.697  0.00  0.00     0.013 C 
ATOM      6  C6  <0> d          -0.609   1.601   1.306  0.00  0.00     0.138 C 
ATOM      7  O1  <0> d          -1.531   1.112   1.914  0.00  0.00    -0.297 OA
ATOM      8  H5  <0> d           2.088   1.037   0.617  0.00  0.00     0.034 H 
ATOM      9  H6  <0> d           1.812   1.716  -1.022  0.00  0.00     0.034 H 
ATOM     10  H7  <0> d           2.174   3.405   1.062  0.00  0.00     0.034 H 
ATOM     11  H8  <0> d           0.894   3.760  -0.141  0.00  0.00     0.034 H 
ENDROOT
BRANCH   5  12
ATOM     12  C7  <0> d           0.828   2.637   3.061  0.00  0.00    -0.063 C 
ATOM     13  H9  <0> d           1.421   3.517   3.313  0.00  0.00     0.029 H 
ATOM     14  H10 <0> d           0.060   2.487   3.819  0.00  0.00     0.029 H 
ATOM     15  H11 <0> d           1.477   1.762   3.022  0.00  0.00     0.029 H 
ENDBRANCH   5  12
BRANCH   5  16
ATOM     16  C8  <0> d          -0.772   4.050   1.747  0.00  0.00    -0.063 C 
ATOM     17  H12 <0> d          -1.256   4.174   0.778  0.00  0.00     0.029 H 
ATOM     18  H13 <0> d          -1.530   3.890   2.514  0.00  0.00     0.029 H 
ATOM     19  H14 <0> d          -0.198   4.946   1.984  0.00  0.00     0.029 H 
ENDBRANCH   5  16
BRANCH   1  20
ATOM     20  C1  <0> d          -0.800   1.615  -1.192  0.00  0.00    -0.066 C 
ATOM     21  H2  <0> d          -0.325   1.282  -2.115  0.00  0.00     0.028 H 
ATOM     22  H3  <0> d          -1.821   1.236  -1.152  0.00  0.00     0.028 H 
ATOM     23  H4  <0> d          -0.816   2.704  -1.165  0.00  0.00     0.028 H 
ENDBRANCH   1  20
TORSDOF 3
