REMARK  3 active torsions:
REMARK  status: ('A' for Active; 'I' for Inactive)
REMARK    1  A    between atoms: N4_5  and  C2_6 
REMARK    2  A    between atoms: C2_6  and  C3_7 
REMARK    3  A    between atoms: C3_7  and  C4_8 
ROOT
ATOM      1  C2  <0> d          -0.013   1.086   0.008  0.00  0.00     0.029 C 
ATOM      2  H2  <0> d           0.002  -0.004   0.002  0.00  0.00     0.068 H 
ATOM      3  H3  <0> d           1.010   1.463   0.000  0.00  0.00     0.068 H 
ENDROOT
BRANCH   1   4
ATOM      4  N4  <0> d          -0.698   1.558   1.213  0.00  0.00    -0.241 N 
ATOM      5  C1  <0> d          -1.158   0.795   2.222  0.00  0.00     0.107 A 
ATOM      6  N1  <0> d          -1.698   1.611   3.095  0.00  0.00    -0.122 NA
ATOM      7  H1  <0> d          -1.093  -0.280   2.300  0.00  0.00     0.149 H 
ATOM      8  N2  <0> d          -1.584   2.812   2.641  0.00  0.00    -0.024 NA
ATOM      9  N3  <0> d          -0.980   2.783   1.504  0.00  0.00    -0.045 NA
ENDBRANCH   1   4
BRANCH   1  10
ATOM     10  C3  <0> d          -0.753   1.593  -1.232  0.00  0.00     0.032 C 
ATOM     11  H4  <0> d          -1.775   1.215  -1.224  0.00  0.00     0.051 H 
ATOM     12  H5  <0> d          -0.767   2.683  -1.226  0.00  0.00     0.051 H 
BRANCH  10  13
ATOM     13  C4  <0> d          -0.047   1.107  -2.471  0.00  0.00     0.174 C 
ATOM     14  O1  <0> d           0.945   0.425  -2.374  0.00  0.00    -0.648 OA
ATOM     15  O2  <0> d          -0.522   1.431  -3.684  0.00  0.00    -0.648 OA
ENDBRANCH  10  13
ENDBRANCH   1  10
TORSDOF 3
