REMARK  0 active torsions:
REMARK  status: ('A' for Active; 'I' for Inactive)
ROOT
ATOM      1  C1  <0> d          -0.013   1.076   0.008  0.00  0.00     0.066 A 
ATOM      2  N1  <0> d           1.080   1.867   0.002  0.00  0.00    -0.340 N 
ATOM      3  H1  <0> d           2.032   1.561  -0.008  0.00  0.00     0.167 HD
ATOM      4  C2  <0> d           0.645   3.170   0.012  0.00  0.00     0.154 A 
ATOM      5  C3  <0> d          -0.745   3.112   0.025  0.00  0.00     0.175 A 
ATOM      6  N2  <0> d          -1.089   1.812   0.017  0.00  0.00    -0.230 NA
ATOM      7  C4  <0> d          -1.643   4.229   0.038  0.00  0.00     0.123 C 
ATOM      8  N3  <0> d          -2.354   5.114   0.049  0.00  0.00    -0.190 NA
ATOM      9  C5  <0> d           1.458   4.349   0.011  0.00  0.00     0.121 C 
ATOM     10  N4  <0> d           2.102   5.285   0.010  0.00  0.00    -0.190 NA
ATOM     11  H2  <0> d           0.002  -0.004   0.002  0.00  0.00     0.143 H 
ENDROOT
TORSDOF 0
