REMARK  4 active torsions:
REMARK  status: ('A' for Active; 'I' for Inactive)
REMARK    1  A    between atoms: C1_1  and  C2_2 
REMARK    2  A    between atoms: C5_5  and  C10_11 
REMARK    3  A    between atoms: C6_6  and  C8_8 
REMARK    4  A    between atoms: C8_8  and  C9_10 
ROOT
ATOM      1  C2  <0> d          -0.417   5.290   0.862  0.00  0.00    -0.061 A 
ATOM      2  C3  <0> d          -1.345   5.716   1.797  0.00  0.00    -0.077 A 
ATOM      3  C4  <0> d          -1.940   4.808   2.655  0.00  0.00    -0.076 A 
ATOM      4  C5  <0> d          -1.613   3.470   2.583  0.00  0.00    -0.048 A 
ATOM      5  C6  <0> d          -0.677   3.032   1.641  0.00  0.00     0.016 A 
ATOM      6  C7  <0> d          -0.076   3.957   0.781  0.00  0.00    -0.063 A 
ATOM      7  H4  <0> d          -1.605   6.763   1.857  0.00  0.00     0.084 H 
ATOM      8  H5  <0> d          -2.663   5.148   3.382  0.00  0.00     0.084 H 
ATOM      9  H6  <0> d           0.650   3.627   0.054  0.00  0.00     0.085 H 
ENDROOT
BRANCH   5  10
ATOM     10  C8  <0> d          -0.323   1.606   1.559  0.00  0.00     0.156 C 
ATOM     11  O1  <0> d          -0.761   0.824   2.375  0.00  0.00    -0.293 OA
BRANCH  10  12
ATOM     12  C9  <0> d           0.586   1.118   0.461  0.00  0.00    -0.017 C 
ATOM     13  H7  <0> d           0.722   0.132   0.554  0.00  0.00     0.038 H 
ATOM     14  H8  <0> d           1.548   1.625   0.533  0.00  0.00     0.038 H 
ATOM     15  H9  <0> d           0.134   1.333  -0.507  0.00  0.00     0.038 H 
ENDBRANCH  10  12
ENDBRANCH   5  10
BRANCH   4  16
ATOM     16  C10 <0> d          -2.263   2.483   3.518  0.00  0.00    -0.050 C 
ATOM     17  H10 <0> d          -1.608   2.304   4.371  0.00  0.00     0.033 H 
ATOM     18  H11 <0> d          -3.213   2.886   3.869  0.00  0.00     0.033 H 
ATOM     19  H12 <0> d          -2.439   1.545   2.992  0.00  0.00     0.033 H 
ENDBRANCH   4  16
BRANCH   1  20
ATOM     20  C1  <0> d           0.225   6.288  -0.068  0.00  0.00    -0.051 C 
ATOM     21  H1  <0> d           1.135   6.676   0.390  0.00  0.00     0.033 H 
ATOM     22  H2  <0> d           0.472   5.799  -1.010  0.00  0.00     0.033 H 
ATOM     23  H3  <0> d          -0.467   7.109  -0.254  0.00  0.00     0.033 H 
ENDBRANCH   1  20
TORSDOF 4
