REMARK  2 active torsions:
REMARK  status: ('A' for Active; 'I' for Inactive)
REMARK    1  A    between atoms: C1_1  and  C2_2 
REMARK    2  A    between atoms: C2_2  and  C3_3 
ROOT
ATOM      1  C3  <0> d          -0.019   1.526   0.010  0.00  0.00     0.100 C 
ATOM      2  C4  <0> d          -1.035   1.997   0.996  0.00  0.00     0.230 C 
ATOM      3  O1  <0> d          -0.609   2.456   2.035  0.00  0.00    -0.273 OA
ATOM      4  N1  <0> d          -2.341   1.968   0.862  0.00  0.00    -0.359 N 
ATOM      5  C5  <0> d          -3.189   1.551  -0.234  0.00  0.00     0.010 C 
ATOM      6  C6  <0> d          -2.436   0.778  -1.303  0.00  0.00     0.010 C 
ATOM      7  N2  <0> d          -1.453   1.619  -1.970  0.00  0.00    -0.359 N 
ATOM      8  C7  <0> d          -0.341   2.024  -1.375  0.00  0.00     0.230 C 
ATOM      9  O2  <0> d           0.412   2.789  -1.940  0.00  0.00    -0.273 OA
ATOM     10  H6  <0> d           0.964   1.895   0.305  0.00  0.00     0.069 H 
ATOM     11  H7  <0> d          -2.826   2.284   1.641  0.00  0.00     0.162 HD
ATOM     12  H8  <0> d          -3.636   2.435  -0.688  0.00  0.00     0.066 H 
ATOM     13  H9  <0> d          -3.985   0.919   0.161  0.00  0.00     0.066 H 
ATOM     14  H10 <0> d          -3.147   0.406  -2.041  0.00  0.00     0.066 H 
ATOM     15  H11 <0> d          -1.928  -0.068  -0.840  0.00  0.00     0.066 H 
ATOM     16  H12 <0> d          -1.618   1.892  -2.886  0.00  0.00     0.162 HD
ENDROOT
BRANCH   1  17
ATOM     17  C2  <0> d           0.002  -0.004   0.002  0.00  0.00    -0.049 C 
ATOM     18  H4  <0> d          -1.006  -0.382   0.175  0.00  0.00     0.034 H 
ATOM     19  H5  <0> d           0.361  -0.357  -0.965  0.00  0.00     0.034 H 
BRANCH  17  20
ATOM     20  C1  <0> d           0.933  -0.508   1.107  0.00  0.00    -0.075 C 
ATOM     21  H1  <0> d           1.940  -0.130   0.934  0.00  0.00     0.027 H 
ATOM     22  H2  <0> d           0.574  -0.154   2.074  0.00  0.00     0.027 H 
ATOM     23  H3  <0> d           0.948  -1.597   1.101  0.00  0.00     0.027 H 
ENDBRANCH  17  20
ENDBRANCH   1  17
TORSDOF 2
