REMARK  6 active torsions:
REMARK  status: ('A' for Active; 'I' for Inactive)
REMARK    1  A    between atoms: C1_1  and  C2_2 
REMARK    2  A    between atoms: C2_2  and  C3_3 
REMARK    3  A    between atoms: C3_3  and  C4_4 
REMARK    4  A    between atoms: C4_4  and  C5_6 
REMARK    5  A    between atoms: C4_4  and  C8_9 
REMARK    6  A    between atoms: C5_6  and  C6_7 
ROOT
ATOM      1  C4  <0> d          -2.016   3.727  -1.150  0.00  0.00     0.033 C 
ATOM      2  H1  <0> d          -1.634   3.303  -2.078  0.00  0.00     0.057 H 
ENDROOT
BRANCH   1   3
ATOM      3  C3  <0> d          -1.935   5.254  -1.216  0.00  0.00    -0.052 C 
ATOM      4  H7  <0> d          -2.398   5.681  -0.326  0.00  0.00     0.034 H 
ATOM      5  H8  <0> d          -0.890   5.560  -1.264  0.00  0.00     0.034 H 
BRANCH   3   6
ATOM      6  C2  <0> d          -2.671   5.750  -2.461  0.00  0.00    -0.068 C 
ATOM      7  H5  <0> d          -2.209   5.323  -3.351  0.00  0.00     0.032 H 
ATOM      8  H6  <0> d          -3.716   5.444  -2.412  0.00  0.00     0.032 H 
BRANCH   6   9
ATOM      9  C1  <0> d          -2.591   7.277  -2.527  0.00  0.00    -0.076 C 
ATOM     10  H2  <0> d          -3.115   7.630  -3.415  0.00  0.00     0.027 H 
ATOM     11  H3  <0> d          -3.053   7.704  -1.637  0.00  0.00     0.027 H 
ATOM     12  H4  <0> d          -1.546   7.583  -2.576  0.00  0.00     0.027 H 
ENDBRANCH   6   9
ENDBRANCH   3   6
ENDBRANCH   1   3
BRANCH   1  13
ATOM     13  C5  <0> d          -1.176   3.222   0.025  0.00  0.00    -0.038 C 
ATOM     14  H9  <0> d          -1.611   3.575   0.961  0.00  0.00     0.040 H 
ATOM     15  H10 <0> d          -0.158   3.600  -0.067  0.00  0.00     0.040 H 
BRANCH  13  16
ATOM     16  C6  <0> d          -1.156   1.715   0.017  0.00  0.00    -0.111 C 
ATOM     17  C7  <0> d          -0.013   1.076   0.008  0.00  0.00    -0.125 C 
ATOM     18  H12 <0> d           0.002  -0.004   0.002  0.00  0.00     0.066 H 
ATOM     19  H13 <0> d           0.915   1.629   0.002  0.00  0.00     0.066 H 
ATOM     20  H11 <0> d          -2.084   1.163   0.018  0.00  0.00     0.075 H 
ENDBRANCH  13  16
ENDBRANCH   1  13
BRANCH   1  21
ATOM     21  C8  <0> d          -3.451   3.308  -0.959  0.00  0.00     0.177 C 
ATOM     22  O1  <0> d          -3.769   2.671   0.017  0.00  0.00    -0.648 OA
ATOM     23  O2  <0> d          -4.375   3.643  -1.872  0.00  0.00    -0.648 OA
ENDBRANCH   1  21
TORSDOF 6
