REMARK  1 active torsions:
REMARK  status: ('A' for Active; 'I' for Inactive)
REMARK    1  A    between atoms: C2_2  and  C8_9 
ROOT
ATOM      1  C1  <0> d          -0.013   1.086   0.008  0.00  0.00    -0.045 C 
ATOM      2  C2  <0> d          -0.963   1.697  -1.038  0.00  0.00     0.032 C 
ATOM      3  C3  <0> d          -2.064   1.641   0.036  0.00  0.00    -0.045 C 
ATOM      4  C4  <0> d          -0.936   1.681   1.071  0.00  0.00    -0.026 C 
ATOM      5  C5  <0> d          -0.574   2.976   1.799  0.00  0.00    -0.002 C 
ATOM      6  C6  <0> d          -1.351   2.419   2.978  0.00  0.00     0.128 C 
ATOM      7  O1  <0> d          -1.927   2.886   3.931  0.00  0.00    -0.298 OA
ATOM      8  C7  <0> d          -1.092   1.023   2.443  0.00  0.00    -0.002 C 
ATOM      9  H1  <0> d           0.998   1.503   0.125  0.00  0.00     0.035 H 
ATOM     10  H2  <0> d           0.026  -0.007   0.126  0.00  0.00     0.035 H 
ATOM     11  H3  <0> d          -0.722   2.617  -1.591  0.00  0.00     0.056 H 
ATOM     12  H4  <0> d          -2.727   2.513  -0.072  0.00  0.00     0.035 H 
ATOM     13  H5  <0> d          -2.650   0.718  -0.087  0.00  0.00     0.035 H 
ATOM     14  H6  <0> d           0.520   3.065   1.867  0.00  0.00     0.045 H 
ATOM     15  H7  <0> d          -0.978   3.835   1.243  0.00  0.00     0.045 H 
ATOM     16  H8  <0> d          -1.917   0.296   2.409  0.00  0.00     0.045 H 
ATOM     17  H9  <0> d          -0.159   0.506   2.710  0.00  0.00     0.045 H 
ENDROOT
BRANCH   2  18
ATOM     18  C8  <0> d          -1.222   0.794  -2.217  0.00  0.00     0.177 C 
ATOM     19  O2  <0> d          -0.700  -0.294  -2.271  0.00  0.00    -0.648 OA
ATOM     20  O3  <0> d          -2.033   1.199  -3.207  0.00  0.00    -0.648 OA
ENDBRANCH   2  18
TORSDOF 1
