REMARK  3 active torsions:
REMARK  status: ('A' for Active; 'I' for Inactive)
REMARK    1  A    between atoms: C3_3  and  C5_7 
REMARK    2  A    between atoms: C5_7  and  C6_8 
REMARK    3  A    between atoms: C6_8  and  C7_9 
ROOT
ATOM      1  C1  <0> d          -2.651  -5.184   1.150  0.00  0.00    -0.043 C 
ATOM      2  C2  <0> d          -2.019  -4.567  -0.122  0.00  0.00    -0.039 C 
ATOM      3  C3  <0> d          -2.307  -3.058   0.008  0.00  0.00     0.039 C 
ATOM      4  H1  <0> d          -2.939  -2.730  -0.817  0.00  0.00     0.083 H 
ATOM      5  O1  <0> d          -2.989  -2.856   1.257  0.00  0.00    -0.386 OA
ATOM      6  C4  <0> d          -3.669  -4.093   1.569  0.00  0.00     0.020 C 
ATOM      7  H2  <0> d          -3.158  -6.120   0.917  0.00  0.00     0.036 H 
ATOM      8  H3  <0> d          -1.899  -5.334   1.924  0.00  0.00     0.036 H 
ATOM      9  H4  <0> d          -2.493  -4.970  -1.017  0.00  0.00     0.036 H 
ATOM     10  H5  <0> d          -0.945  -4.750  -0.141  0.00  0.00     0.036 H 
ATOM     11  H6  <0> d          -4.587  -4.181   0.988  0.00  0.00     0.074 H 
ATOM     12  H7  <0> d          -3.884  -4.158   2.636  0.00  0.00     0.074 H 
ENDROOT
BRANCH   3  13
ATOM     13  C5  <0> d          -0.993  -2.276  -0.001  0.00  0.00    -0.032 C 
ATOM     14  H8  <0> d          -0.426  -2.526  -0.897  0.00  0.00     0.037 H 
ATOM     15  H9  <0> d          -0.409  -2.536   0.882  0.00  0.00     0.037 H 
BRANCH  13  16
ATOM     16  C6  <0> d          -1.293  -0.775   0.010  0.00  0.00     0.018 C 
ATOM     17  H10 <0> d          -1.859  -0.524   0.907  0.00  0.00     0.049 H 
ATOM     18  H11 <0> d          -1.876  -0.515  -0.873  0.00  0.00     0.049 H 
BRANCH  16  19
ATOM     19  C7  <0> d           0.002  -0.004   0.002  0.00  0.00     0.172 C 
ATOM     20  O2  <0> d           1.056  -0.594  -0.011  0.00  0.00    -0.648 OA
ATOM     21  O3  <0> d          -0.016   1.338   0.009  0.00  0.00    -0.648 OA
ENDBRANCH  16  19
ENDBRANCH  13  16
ENDBRANCH   3  13
TORSDOF 3
