REMARK  1 active torsions:
REMARK  status: ('A' for Active; 'I' for Inactive)
REMARK    1  A    between atoms: C3_3  and  C5_7 
ROOT
ATOM      1  C1  <0> d          -2.495  -2.679   0.012  0.00  0.00    -0.066 A 
ATOM      2  C2  <0> d          -1.162  -2.259   0.002  0.00  0.00    -0.052 A 
ATOM      3  C3  <0> d          -1.172  -0.878   0.009  0.00  0.00     0.080 A 
ATOM      4  N1  <0> d          -2.488  -0.474   0.030  0.00  0.00    -0.363 N 
ATOM      5  H1  <0> d          -2.798   0.445   0.043  0.00  0.00     0.165 HD
ATOM      6  C4  <0> d          -3.280  -1.575   0.026  0.00  0.00    -0.022 A 
ATOM      7  H4  <0> d          -2.839  -3.703   0.011  0.00  0.00     0.085 H 
ATOM      8  H5  <0> d          -0.289  -2.894  -0.011  0.00  0.00     0.087 H 
ATOM      9  H6  <0> d          -4.360  -1.571   0.036  0.00  0.00     0.111 H 
ENDROOT
BRANCH   3  10
ATOM     10  C5  <0> d           0.002  -0.004   0.002  0.00  0.00     0.174 A 
ATOM     11  N4  <0> d           1.265  -0.401  -0.012  0.00  0.00    -0.171 NA
ATOM     12  C6  <0> d           2.076   0.662  -0.014  0.00  0.00     0.362 A 
ATOM     13  N3  <0> d           1.326   1.782  -0.001  0.00  0.00    -0.248 N 
ATOM     14  O1  <0> d           3.294   0.624  -0.026  0.00  0.00    -0.243 OA
ATOM     15  N2  <0> d          -0.017   1.368   0.010  0.00  0.00    -0.278 N 
ATOM     16  H3  <0> d           1.650   2.696   0.001  0.00  0.00     0.192 HD
ATOM     17  H2  <0> d          -0.801   1.939   0.017  0.00  0.00     0.189 HD
ENDBRANCH   3  10
TORSDOF 1
