REMARK  2 active torsions:
REMARK  status: ('A' for Active; 'I' for Inactive)
REMARK    1  A    between atoms: C1_1  and  O1_2 
REMARK    2  A    between atoms: O1_2  and  C2_3 
ROOT
ATOM      1  C2  <0> d           0.673  -0.582   1.123  0.00  0.00     0.114 C 
ATOM      2  H1  <0> d           1.459   0.093   1.462  0.00  0.00     0.098 H 
ATOM      3  C3  <0> d           1.295  -1.919   0.710  0.00  0.00    -0.031 C 
ATOM      4  C4  <0> d           1.765  -2.647   1.975  0.00  0.00    -0.048 C 
ATOM      5  C5  <0> d           0.538  -3.046   2.795  0.00  0.00    -0.005 C 
ATOM      6  N1  <0> d          -0.342  -1.901   2.988  0.00  0.00    -0.359 N 
ATOM      7  C6  <0> d          -0.311  -0.801   2.236  0.00  0.00     0.246 C 
ATOM      8  O2  <0> d          -1.122   0.072   2.465  0.00  0.00    -0.271 OA
ATOM      9  H5  <0> d           0.551  -2.525   0.193  0.00  0.00     0.037 H 
ATOM     10  H6  <0> d           2.145  -1.740   0.051  0.00  0.00     0.037 H 
ATOM     11  H7  <0> d           2.326  -3.539   1.696  0.00  0.00     0.035 H 
ATOM     12  H8  <0> d           2.399  -1.983   2.564  0.00  0.00     0.035 H 
ATOM     13  H9  <0> d          -0.004  -3.833   2.272  0.00  0.00     0.064 H 
ATOM     14  H10 <0> d           0.861  -3.420   3.767  0.00  0.00     0.064 H 
ATOM     15  H11 <0> d          -0.991  -1.942   3.707  0.00  0.00     0.162 HD
ENDROOT
BRANCH   1  16
ATOM     16  O1  <0> d           0.002  -0.004   0.002  0.00  0.00    -0.381 OA
BRANCH  16  17
ATOM     17  C1  <0> d          -0.017   1.425   0.010  0.00  0.00     0.005 C 
ATOM     18  H2  <0> d           1.005   1.802   0.002  0.00  0.00     0.066 H 
ATOM     19  H3  <0> d          -0.544   1.786  -0.873  0.00  0.00     0.066 H 
ATOM     20  H4  <0> d          -0.527   1.776   0.907  0.00  0.00     0.066 H 
ENDBRANCH  16  17
ENDBRANCH   1  16
TORSDOF 2
