REMARK  6 active torsions:
REMARK  status: ('A' for Active; 'I' for Inactive)
REMARK    1  A    between atoms: C1_1  and  C2_2 
REMARK    2  A    between atoms: C2_2  and  C3_3 
REMARK    3  A    between atoms: C3_3  and  C4_4 
REMARK    4  A    between atoms: C3_3  and  O1_7 
REMARK    5  A    between atoms: O1_7  and  C6_8 
REMARK    6  A    between atoms: C6_8  and  C7_10 
ROOT
ATOM      1  C3  <0> d           0.002  -0.004   0.002  0.00  0.00     0.154 C 
ATOM      2  C5  <0> d           0.714  -0.492   1.195  0.00  0.00     0.098 C 
ATOM      3  N1  <0> d           1.263  -0.868   2.115  0.00  0.00    -0.194 NA
ENDROOT
BRANCH   1   4
ATOM      4  C2  <0> d          -1.433  -0.534   0.013  0.00  0.00    -0.027 C 
ATOM      5  H4  <0> d          -1.970  -0.111   0.862  0.00  0.00     0.038 H 
ATOM      6  H5  <0> d          -1.933  -0.247  -0.912  0.00  0.00     0.038 H 
BRANCH   4   7
ATOM      7  C1  <0> d          -1.413  -2.059   0.130  0.00  0.00    -0.073 C 
ATOM      8  H1  <0> d          -2.436  -2.436   0.138  0.00  0.00     0.027 H 
ATOM      9  H2  <0> d          -0.876  -2.482  -0.719  0.00  0.00     0.027 H 
ATOM     10  H3  <0> d          -0.913  -2.346   1.055  0.00  0.00     0.027 H 
ENDBRANCH   4   7
ENDBRANCH   1   4
BRANCH   1  11
ATOM     11  C4  <0> d          -0.019   1.526   0.010  0.00  0.00    -0.035 C 
ATOM     12  H6  <0> d           1.004   1.903   0.003  0.00  0.00     0.033 H 
ATOM     13  H7  <0> d          -0.546   1.887  -0.873  0.00  0.00     0.033 H 
ATOM     14  H8  <0> d          -0.529   1.877   0.907  0.00  0.00     0.033 H 
ENDBRANCH   1  11
BRANCH   1  15
ATOM     15  O1  <0> d           0.682  -0.472  -1.193  0.00  0.00    -0.296 OA
BRANCH  15  16
ATOM     16  C6  <0> d           1.959  -0.093  -1.355  0.00  0.00     0.256 C 
ATOM     17  O2  <0> d           2.492   0.606  -0.526  0.00  0.00    -0.266 OA
BRANCH  16  18
ATOM     18  C7  <0> d           2.729  -0.541  -2.571  0.00  0.00     0.004 C 
ATOM     19  H9  <0> d           2.231  -0.179  -3.470  0.00  0.00     0.041 H 
ATOM     20  H10 <0> d           3.741  -0.138  -2.529  0.00  0.00     0.041 H 
ATOM     21  H11 <0> d           2.772  -1.630  -2.593  0.00  0.00     0.041 H 
ENDBRANCH  16  18
ENDBRANCH  15  16
ENDBRANCH   1  15
TORSDOF 6
