REMARK  0 active torsions:
REMARK  status: ('A' for Active; 'I' for Inactive)
ROOT
ATOM      1  C1  <0> d          -0.761   1.597  -1.229  0.00  0.00    -0.056 C 
ATOM      2  C2  <0> d          -0.013   1.086   0.008  0.00  0.00    -0.050 C 
ATOM      3  C3  <0> d          -0.735   1.582   1.261  0.00  0.00    -0.005 C 
ATOM      4  N1  <0> d          -2.161   1.274   1.180  0.00  0.00    -0.361 N 
ATOM      5  C4  <0> d          -2.802   0.989   0.046  0.00  0.00     0.217 C 
ATOM      6  O1  <0> d          -3.997   0.787   0.097  0.00  0.00    -0.274 OA
ATOM      7  C5  <0> d          -2.124   0.903  -1.291  0.00  0.00     0.009 C 
ATOM      8  H1  <0> d          -0.901   2.675  -1.154  0.00  0.00     0.033 H 
ATOM      9  H2  <0> d          -0.188   1.363  -2.127  0.00  0.00     0.033 H 
ATOM     10  H3  <0> d           0.002  -0.004   0.002  0.00  0.00     0.035 H 
ATOM     11  H4  <0> d           1.009   1.465   0.000  0.00  0.00     0.035 H 
ATOM     12  H5  <0> d          -0.307   1.098   2.139  0.00  0.00     0.064 H 
ATOM     13  H6  <0> d          -0.605   2.661   1.349  0.00  0.00     0.064 H 
ATOM     14  H7  <0> d          -2.673   1.276   2.003  0.00  0.00     0.162 HD
ATOM     15  H8  <0> d          -2.744   1.390  -2.044  0.00  0.00     0.047 H 
ATOM     16  H9  <0> d          -1.985  -0.144  -1.561  0.00  0.00     0.047 H 
ENDROOT
TORSDOF 0
