REMARK  4 active torsions:
REMARK  status: ('A' for Active; 'I' for Inactive)
REMARK    1  A    between atoms: C1_1  and  C2_2 
REMARK    2  A    between atoms: C3_3  and  C8_9 
REMARK    3  A    between atoms: C7_7  and  N1_8 
REMARK    4  A    between atoms: C8_9  and  O1_10 
ROOT
ATOM      1  C2  <0> d           2.275   3.860   0.007  0.00  0.00    -0.027 A 
ATOM      2  C3  <0> d           1.147   3.062   0.008  0.00  0.00    -0.027 A 
ATOM      3  C4  <0> d          -0.110   3.639   0.023  0.00  0.00    -0.074 A 
ATOM      4  C5  <0> d          -0.242   5.016   0.032  0.00  0.00    -0.080 A 
ATOM      5  C6  <0> d           0.881   5.819   0.026  0.00  0.00    -0.057 A 
ATOM      6  C7  <0> d           2.145   5.243   0.011  0.00  0.00     0.032 A 
ATOM      7  H4  <0> d          -0.990   3.013   0.027  0.00  0.00     0.084 H 
ATOM      8  H5  <0> d          -1.225   5.463   0.043  0.00  0.00     0.083 H 
ATOM      9  H6  <0> d           0.777   6.894   0.033  0.00  0.00     0.086 H 
ENDROOT
BRANCH   2  10
ATOM     10  C8  <0> d           1.286   1.562  -0.002  0.00  0.00     0.041 C 
ATOM     11  H9  <0> d           1.840   1.243   0.881  0.00  0.00     0.081 H 
ATOM     12  H10 <0> d           1.823   1.252  -0.899  0.00  0.00     0.081 H 
BRANCH  10  13
ATOM     13  O1  <0> d          -0.011   0.963   0.007  0.00  0.00    -0.396 OA
ATOM     14  H11 <0> d           0.002  -0.004   0.002  0.00  0.00     0.209 HD
ENDBRANCH  10  13
ENDBRANCH   2  10
BRANCH   1  15
ATOM     15  C1  <0> d           3.644   3.230  -0.004  0.00  0.00    -0.049 C 
ATOM     16  H1  <0> d           3.969   3.085  -1.034  0.00  0.00     0.033 H 
ATOM     17  H2  <0> d           4.348   3.884   0.510  0.00  0.00     0.033 H 
ATOM     18  H3  <0> d           3.605   2.267   0.504  0.00  0.00     0.033 H 
ENDBRANCH   1  15
BRANCH   6  19
ATOM     19  N1  <0> d           3.284   6.052   0.004  0.00  0.00    -0.399 N 
ATOM     20  H7  <0> d           3.192   7.018   0.010  0.00  0.00     0.156 HD
ATOM     21  H8  <0> d           4.166   5.649  -0.006  0.00  0.00     0.156 HD
ENDBRANCH   6  19
TORSDOF 4
