REMARK  2 active torsions:
REMARK  status: ('A' for Active; 'I' for Inactive)
REMARK    1  A    between atoms: C4_4  and  C6_6 
REMARK    2  A    between atoms: C7_9  and  N3_11 
ROOT
ATOM      1  C1  <0> d           0.652   5.311   0.706  0.00  0.00    -0.064 C 
ATOM      2  C2  <0> d           0.132   5.019  -0.724  0.00  0.00    -0.064 C 
ATOM      3  C3  <0> d           1.054   3.895  -1.240  0.00  0.00    -0.055 C 
ATOM      4  C4  <0> d           1.617   3.183   0.003  0.00  0.00     0.012 C 
ATOM      5  C5  <0> d           1.018   3.901   1.231  0.00  0.00    -0.055 C 
ATOM      6  H1  <0> d          -0.117   5.756   1.355  0.00  0.00     0.033 H 
ATOM      7  H2  <0> d           1.549   5.948   0.710  0.00  0.00     0.033 H 
ATOM      8  H3  <0> d          -0.919   4.701  -0.674  0.00  0.00     0.033 H 
ATOM      9  H4  <0> d           0.210   5.930  -1.336  0.00  0.00     0.033 H 
ATOM     10  H5  <0> d           0.470   3.198  -1.860  0.00  0.00     0.034 H 
ATOM     11  H6  <0> d           1.864   4.332  -1.842  0.00  0.00     0.034 H 
ATOM     12  H7  <0> d           2.717   3.198   0.017  0.00  0.00     0.052 H 
ATOM     13  H8  <0> d           1.745   3.992   2.051  0.00  0.00     0.034 H 
ATOM     14  H9  <0> d           0.110   3.400   1.599  0.00  0.00     0.034 H 
ENDROOT
BRANCH   4  15
ATOM     15  C6  <0> d           1.204   1.734  -0.000  0.00  0.00     0.175 A 
ATOM     16  O1  <0> d           2.032   0.671  -0.014  0.00  0.00    -0.260 OA
ATOM     17  C7  <0> d           1.245  -0.421  -0.012  0.00  0.00     0.265 A 
ATOM     18  N2  <0> d           0.002  -0.004   0.002  0.00  0.00    -0.103 NA
ATOM     19  N1  <0> d          -0.015   1.282   0.009  0.00  0.00    -0.125 NA
BRANCH  17  20
ATOM     20  N3  <0> d           1.668  -1.737  -0.024  0.00  0.00    -0.362 N 
ATOM     21  H10 <0> d           2.743  -1.969  -0.035  0.00  0.00     0.159 HD
ATOM     22  H11 <0> d           0.930  -2.552  -0.022  0.00  0.00     0.159 HD
ENDBRANCH  17  20
ENDBRANCH   4  15
TORSDOF 2
