REMARK  0 active torsions:
REMARK  status: ('A' for Active; 'I' for Inactive)
ROOT
ATOM      1  C1  <0> d          -0.019   1.539   0.011  0.00  0.00    -0.064 C 
ATOM      2  C2  <0> d           1.478   1.940  -0.002  0.00  0.00    -0.064 C 
ATOM      3  C3  <0> d           2.108   0.880  -0.940  0.00  0.00    -0.050 C 
ATOM      4  C4  <0> d           1.353  -0.419  -0.602  0.00  0.00     0.041 C 
ATOM      5  C5  <0> d           0.002  -0.004   0.002  0.00  0.00    -0.050 C 
ATOM      6  C6  <0> d           1.122  -1.226  -1.880  0.00  0.00    -0.048 C 
ATOM      7  C7  <0> d           0.614  -2.619  -1.488  0.00  0.00    -0.049 C 
ATOM      8  C8  <0> d           1.735  -3.364  -0.762  0.00  0.00    -0.005 C 
ATOM      9  N1  <0> d           2.280  -2.547   0.316  0.00  0.00    -0.360 N 
ATOM     10  C9  <0> d           2.137  -1.222   0.392  0.00  0.00     0.226 C 
ATOM     11  O1  <0> d           2.669  -0.638   1.312  0.00  0.00    -0.273 OA
ATOM     12  H1  <0> d          -0.505   1.909   0.913  0.00  0.00     0.033 H 
ATOM     13  H2  <0> d          -0.522   1.919  -0.878  0.00  0.00     0.033 H 
ATOM     14  H3  <0> d           1.606   2.942  -0.410  0.00  0.00     0.033 H 
ATOM     15  H4  <0> d           1.904   1.871   0.999  0.00  0.00     0.033 H 
ATOM     16  H5  <0> d           1.951   1.153  -1.984  0.00  0.00     0.034 H 
ATOM     17  H6  <0> d           3.172   0.769  -0.730  0.00  0.00     0.034 H 
ATOM     18  H7  <0> d          -0.085  -0.385   1.020  0.00  0.00     0.034 H 
ATOM     19  H8  <0> d          -0.815  -0.386  -0.611  0.00  0.00     0.034 H 
ATOM     20  H9  <0> d           0.379  -0.725  -2.501  0.00  0.00     0.034 H 
ATOM     21  H10 <0> d           2.059  -1.318  -2.429  0.00  0.00     0.034 H 
ATOM     22  H11 <0> d          -0.248  -2.522  -0.829  0.00  0.00     0.035 H 
ATOM     23  H12 <0> d           0.331  -3.170  -2.385  0.00  0.00     0.035 H 
ATOM     24  H13 <0> d           1.339  -4.290  -0.345  0.00  0.00     0.064 H 
ATOM     25  H14 <0> d           2.529  -3.599  -1.471  0.00  0.00     0.064 H 
ATOM     26  H15 <0> d           2.775  -2.993   1.020  0.00  0.00     0.162 HD
ENDROOT
TORSDOF 0
