REMARK  5 active torsions:
REMARK  status: ('A' for Active; 'I' for Inactive)
REMARK    1  A    between atoms: C1_1  and  C2_2 
REMARK    2  A    between atoms: C2_2  and  C3_3 
REMARK    3  A    between atoms: C3_3  and  C4_5 
REMARK    4  A    between atoms: C3_3  and  N1_6 
REMARK    5  A    between atoms: C5_7  and  C8_11 
ROOT
ATOM      1  C3  <0> d           1.771  -1.782  -0.025  0.00  0.00     0.031 C 
ATOM      2  H1  <0> d           0.919  -2.462  -0.021  0.00  0.00     0.075 H 
ENDROOT
BRANCH   1   3
ATOM      3  C2  <0> d           2.608  -2.022  -1.283  0.00  0.00    -0.048 C 
ATOM      4  H5  <0> d           2.023  -1.756  -2.164  0.00  0.00     0.035 H 
ATOM      5  H6  <0> d           3.507  -1.406  -1.245  0.00  0.00     0.035 H 
BRANCH   3   6
ATOM      6  C1  <0> d           3.003  -3.498  -1.360  0.00  0.00    -0.075 C 
ATOM      7  H2  <0> d           2.104  -4.113  -1.399  0.00  0.00     0.027 H 
ATOM      8  H3  <0> d           3.599  -3.668  -2.257  0.00  0.00     0.027 H 
ATOM      9  H4  <0> d           3.588  -3.763  -0.479  0.00  0.00     0.027 H 
ENDBRANCH   3   6
ENDBRANCH   1   3
BRANCH   1  10
ATOM     10  C4  <0> d           2.631  -2.036   1.215  0.00  0.00    -0.055 C 
ATOM     11  H7  <0> d           3.484  -1.357   1.211  0.00  0.00     0.030 H 
ATOM     12  H8  <0> d           2.035  -1.865   2.111  0.00  0.00     0.030 H 
ATOM     13  H9  <0> d           2.987  -3.066   1.206  0.00  0.00     0.030 H 
ENDBRANCH   1  10
BRANCH   1  14
ATOM     14  N1  <0> d           1.293  -0.398  -0.012  0.00  0.00    -0.270 N 
ATOM     15  N2  <0> d           2.094   0.751  -0.014  0.00  0.00    -0.184 NA
ATOM     16  C7  <0> d           1.308   1.797  -0.001  0.00  0.00     0.024 A 
ATOM     17  C6  <0> d          -0.016   1.349   0.009  0.00  0.00    -0.041 A 
ATOM     18  H11 <0> d           1.628   2.829   0.002  0.00  0.00     0.117 H 
ATOM     19  C5  <0> d           0.002  -0.004   0.002  0.00  0.00     0.028 A 
ATOM     20  H10 <0> d          -0.898   1.972   0.017  0.00  0.00     0.088 H 
BRANCH  19  21
ATOM     21  C8  <0> d          -1.203  -0.909   0.008  0.00  0.00    -0.036 C 
ATOM     22  H12 <0> d          -1.503  -1.121  -1.018  0.00  0.00     0.035 H 
ATOM     23  H13 <0> d          -0.954  -1.842   0.514  0.00  0.00     0.035 H 
ATOM     24  H14 <0> d          -2.023  -0.418   0.533  0.00  0.00     0.035 H 
ENDBRANCH  19  21
ENDBRANCH   1  14
TORSDOF 5
