REMARK  1 active torsions:
REMARK  status: ('A' for Active; 'I' for Inactive)
REMARK    1  A    between atoms: C1_1  and  C2_2 
ROOT
ATOM      1  C2  <0> d          -0.534   3.544   0.025  0.00  0.00     0.071 A 
ATOM      2  C3  <0> d           0.826   3.517   0.012  0.00  0.00     0.086 A 
ATOM      3  C4  <0> d           1.197   2.088   0.002  0.00  0.00     0.021 A 
ATOM      4  C5  <0> d           2.406   1.399  -0.013  0.00  0.00    -0.069 A 
ATOM      5  C6  <0> d           2.405   0.020  -0.021  0.00  0.00    -0.082 A 
ATOM      6  C7  <0> d           1.205  -0.676  -0.013  0.00  0.00    -0.080 A 
ATOM      7  C8  <0> d           0.002  -0.004   0.002  0.00  0.00    -0.049 A 
ATOM      8  C9  <0> d          -0.017   1.385   0.010  0.00  0.00     0.087 A 
ATOM      9  O1  <0> d          -1.014   2.294   0.019  0.00  0.00    -0.313 OA
ATOM     10  C10 <0> d           1.714   4.640   0.009  0.00  0.00     0.103 C 
ATOM     11  N1  <0> d           2.418   5.532   0.007  0.00  0.00    -0.191 NA
ATOM     12  H4  <0> d           3.340   1.941  -0.019  0.00  0.00     0.085 H 
ATOM     13  H5  <0> d           3.340  -0.519  -0.033  0.00  0.00     0.083 H 
ATOM     14  H6  <0> d           1.214  -1.756  -0.019  0.00  0.00     0.083 H 
ATOM     15  H7  <0> d          -0.926  -0.557   0.008  0.00  0.00     0.087 H 
ENDROOT
BRANCH   1  16
ATOM     16  C1  <0> d          -1.374   4.795   0.039  0.00  0.00    -0.030 C 
ATOM     17  H1  <0> d          -1.586   5.102  -0.986  0.00  0.00     0.036 H 
ATOM     18  H2  <0> d          -2.311   4.598   0.560  0.00  0.00     0.036 H 
ATOM     19  H3  <0> d          -0.833   5.591   0.551  0.00  0.00     0.036 H 
ENDBRANCH   1  16
TORSDOF 1
