REMARK  3 active torsions:
REMARK  status: ('A' for Active; 'I' for Inactive)
REMARK    1  A    between atoms: C1_1  and  C2_2 
REMARK    2  A    between atoms: C3_3  and  C4_4 
REMARK    3  A    between atoms: C5_5  and  C6_6 
ROOT
ATOM      1  C6  <0> d           0.072  -5.160  -0.026  0.00  0.00     0.133 A 
ATOM      2  C7  <0> d           1.282  -5.829  -0.036  0.00  0.00    -0.041 A 
ATOM      3  C8  <0> d           1.299  -7.226  -0.043  0.00  0.00    -0.074 A 
ATOM      4  C9  <0> d           0.102  -7.909  -0.041  0.00  0.00    -0.010 A 
ATOM      5  C10 <0> d          -1.103  -7.188  -0.031  0.00  0.00     0.288 A 
ATOM      6  O1  <0> d          -2.166  -7.784  -0.028  0.00  0.00    -0.260 OA
ATOM      7  O2  <0> d          -1.089  -5.844  -0.019  0.00  0.00    -0.266 OA
ATOM      8  H4  <0> d           2.208  -5.274  -0.038  0.00  0.00     0.088 H 
ATOM      9  H5  <0> d           2.236  -7.762  -0.051  0.00  0.00     0.083 H 
ATOM     10  H6  <0> d           0.090  -8.989  -0.046  0.00  0.00     0.092 H 
ENDROOT
BRANCH   1  11
ATOM     11  C5  <0> d           0.053  -3.729  -0.018  0.00  0.00    -0.027 C 
ATOM     12  C4  <0> d           0.037  -2.555  -0.012  0.00  0.00    -0.008 C 
BRANCH  12  13
ATOM     13  C3  <0> d           0.018  -1.178  -0.004  0.00  0.00    -0.015 C 
ATOM     14  C2  <0> d           0.002  -0.004   0.002  0.00  0.00    -0.097 C 
BRANCH  14  15
ATOM     15  C1  <0> d          -0.018   1.468   0.010  0.00  0.00    -0.020 C 
ATOM     16  H1  <0> d           1.005   1.845   0.002  0.00  0.00     0.044 H 
ATOM     17  H2  <0> d          -0.545   1.829  -0.873  0.00  0.00     0.044 H 
ATOM     18  H3  <0> d          -0.528   1.819   0.907  0.00  0.00     0.044 H 
ENDBRANCH  14  15
ENDBRANCH  12  13
ENDBRANCH   1  11
TORSDOF 3
