REMARK  2 active torsions:
REMARK  status: ('A' for Active; 'I' for Inactive)
REMARK    1  A    between atoms: C1_1  and  C2_2 
REMARK    2  A    between atoms: C2_2  and  C3_3 
ROOT
ATOM      1  C3  <0> d          -1.433  -0.534   0.013  0.00  0.00     0.089 C 
ATOM      2  H1  <0> d          -1.964  -0.107   0.864  0.00  0.00     0.087 H 
ATOM      3  C4  <0> d          -1.405  -2.026   0.149  0.00  0.00     0.240 C 
ATOM      4  O1  <0> d          -1.222  -2.506   1.248  0.00  0.00    -0.271 OA
ATOM      5  N1  <0> d          -1.573  -2.850  -0.890  0.00  0.00    -0.351 N 
ATOM      6  C5  <0> d          -1.797  -2.373  -2.248  0.00  0.00     0.069 C 
ATOM      7  C6  <0> d          -2.273  -0.952  -2.254  0.00  0.00     0.236 C 
ATOM      8  O2  <0> d          -2.839  -0.533  -3.242  0.00  0.00    -0.272 OA
ATOM      9  N2  <0> d          -2.100  -0.129  -1.217  0.00  0.00    -0.346 N 
ATOM     10  H7  <0> d          -1.544  -3.807  -0.733  0.00  0.00     0.163 HD
ATOM     11  H8  <0> d          -0.864  -2.439  -2.808  0.00  0.00     0.078 H 
ATOM     12  H9  <0> d          -2.546  -3.003  -2.728  0.00  0.00     0.078 H 
ATOM     13  H10 <0> d          -2.434   0.779  -1.286  0.00  0.00     0.163 HD
ENDROOT
BRANCH   1  14
ATOM     14  C2  <0> d           0.002  -0.004   0.002  0.00  0.00    -0.041 C 
ATOM     15  H5  <0> d           0.512  -0.356  -0.895  0.00  0.00     0.036 H 
ATOM     16  H6  <0> d           0.529  -0.365   0.885  0.00  0.00     0.036 H 
BRANCH  14  17
ATOM     17  C1  <0> d          -0.019   1.526   0.010  0.00  0.00    -0.074 C 
ATOM     18  H2  <0> d           1.004   1.903   0.003  0.00  0.00     0.027 H 
ATOM     19  H3  <0> d          -0.546   1.887  -0.873  0.00  0.00     0.027 H 
ATOM     20  H4  <0> d          -0.529   1.877   0.907  0.00  0.00     0.027 H 
ENDBRANCH  14  17
ENDBRANCH   1  14
TORSDOF 2
