REMARK  5 active torsions:
REMARK  status: ('A' for Active; 'I' for Inactive)
REMARK    1  A    between atoms: C1_1  and  C2_2 
REMARK    2  A    between atoms: C2_2  and  C3_4 
REMARK    3  A    between atoms: C2_2  and  O2_7 
REMARK    4  A    between atoms: C3_4  and  O1_5 
REMARK    5  A    between atoms: O1_5  and  C4_6 
ROOT
ATOM      1  C2  <0> d          -1.154  -2.126   0.002  0.00  0.00     0.052 C 
ATOM      2  H1  <0> d          -0.541  -2.429  -0.848  0.00  0.00     0.085 H 
ENDROOT
BRANCH   1   3
ATOM      3  C1  <0> d          -2.539  -2.767  -0.114  0.00  0.00    -0.051 C 
ATOM      4  H2  <0> d          -3.014  -2.440  -1.039  0.00  0.00     0.031 H 
ATOM      5  H3  <0> d          -2.438  -3.852  -0.121  0.00  0.00     0.031 H 
ATOM      6  H4  <0> d          -3.151  -2.464   0.735  0.00  0.00     0.031 H 
ENDBRANCH   1   3
BRANCH   1   7
ATOM      7  C3  <0> d          -1.295  -0.603   0.011  0.00  0.00     0.042 C 
ATOM      8  H5  <0> d          -1.832  -0.294   0.908  0.00  0.00     0.078 H 
ATOM      9  H6  <0> d          -1.849  -0.284  -0.872  0.00  0.00     0.078 H 
BRANCH   7  10
ATOM     10  O1  <0> d           0.002  -0.004   0.002  0.00  0.00    -0.393 OA
BRANCH  10  11
ATOM     11  C4  <0> d          -0.017   1.425   0.010  0.00  0.00     0.004 C 
ATOM     12  H7  <0> d           1.005   1.802   0.002  0.00  0.00     0.066 H 
ATOM     13  H8  <0> d          -0.544   1.786  -0.873  0.00  0.00     0.066 H 
ATOM     14  H9  <0> d          -0.527   1.776   0.907  0.00  0.00     0.066 H 
ENDBRANCH  10  11
ENDBRANCH   7  10
ENDBRANCH   1   7
BRANCH   1  15
ATOM     15  O2  <0> d          -0.531  -2.555   1.214  0.00  0.00    -0.394 OA
ATOM     16  H10 <0> d          -1.022  -2.319   2.013  0.00  0.00     0.210 HD
ENDBRANCH   1  15
TORSDOF 5
