REMARK  0 active torsions:
REMARK  status: ('A' for Active; 'I' for Inactive)
ROOT
ATOM      1  C1  <0> d          -0.013   1.086   0.008  0.00  0.00    -0.065 C 
ATOM      2  C2  <0> d          -0.729   1.579   1.267  0.00  0.00    -0.060 C 
ATOM      3  C3  <0> d          -0.749   3.109   1.275  0.00  0.00    -0.013 C 
ATOM      4  C4  <0> d          -1.489   3.616   0.036  0.00  0.00     0.163 C 
ATOM      5  C5  <0> d          -0.774   3.123  -1.223  0.00  0.00    -0.013 C 
ATOM      6  C6  <0> d          -0.753   1.593  -1.232  0.00  0.00    -0.060 C 
ATOM      7  O1  <0> d          -2.830   3.122   0.047  0.00  0.00    -0.355 OA
ATOM      8  C7  <0> d          -3.619   3.567  -1.061  0.00  0.00     0.025 C 
ATOM      9  C8  <0> d          -3.648   5.100  -1.067  0.00  0.00    -0.025 C 
ATOM     10  C9  <0> d          -2.207   5.621  -1.063  0.00  0.00     0.025 C 
ATOM     11  O2  <0> d          -1.507   5.046   0.044  0.00  0.00    -0.355 OA
ATOM     12  H1  <0> d           0.002  -0.004   0.002  0.00  0.00     0.033 H 
ATOM     13  H2  <0> d           1.010   1.463   0.000  0.00  0.00     0.033 H 
ATOM     14  H3  <0> d          -1.752   1.202   1.274  0.00  0.00     0.033 H 
ATOM     15  H4  <0> d          -0.202   1.218   2.150  0.00  0.00     0.033 H 
ATOM     16  H5  <0> d           0.274   3.486   1.268  0.00  0.00     0.041 H 
ATOM     17  H6  <0> d          -1.259   3.461   2.172  0.00  0.00     0.041 H 
ATOM     18  H7  <0> d           0.249   3.500  -1.232  0.00  0.00     0.041 H 
ATOM     19  H8  <0> d          -1.301   3.483  -2.106  0.00  0.00     0.041 H 
ATOM     20  H9  <0> d          -0.243   1.241  -2.128  0.00  0.00     0.033 H 
ATOM     21  H10 <0> d          -1.775   1.215  -1.224  0.00  0.00     0.033 H 
ATOM     22  H11 <0> d          -4.635   3.183  -0.963  0.00  0.00     0.074 H 
ATOM     23  H12 <0> d          -3.181   3.207  -1.992  0.00  0.00     0.074 H 
ATOM     24  H13 <0> d          -4.168   5.459  -0.179  0.00  0.00     0.039 H 
ATOM     25  H14 <0> d          -4.162   5.454  -1.960  0.00  0.00     0.039 H 
ATOM     26  H15 <0> d          -2.212   6.707  -0.967  0.00  0.00     0.074 H 
ATOM     27  H16 <0> d          -1.714   5.338  -1.993  0.00  0.00     0.074 H 
ENDROOT
TORSDOF 0
