REMARK  1 active torsions:
REMARK  status: ('A' for Active; 'I' for Inactive)
REMARK    1  A    between atoms: C1_1  and  C2_2 
ROOT
ATOM      1  C2  <0> d          -0.742   1.585  -1.213  0.00  0.00     0.102 A 
ATOM      2  N1  <0> d          -1.228   0.721  -2.062  0.00  0.00    -0.245 NA
ATOM      3  C3  <0> d          -1.882   1.113  -3.159  0.00  0.00     0.047 A 
ATOM      4  C4  <0> d          -2.053   2.442  -3.411  0.00  0.00     0.201 A 
ATOM      5  C5  <0> d          -1.526   3.376  -2.492  0.00  0.00     0.286 A 
ATOM      6  N2  <0> d          -0.880   2.913  -1.400  0.00  0.00    -0.309 N 
ATOM      7  O1  <0> d          -1.656   4.574  -2.678  0.00  0.00    -0.265 OA
ATOM      8  F1  <0> d          -2.711   2.856  -4.515  0.00  0.00    -0.199 F 
ATOM      9  H4  <0> d          -2.275   0.378  -3.846  0.00  0.00     0.119 H 
ATOM     10  H5  <0> d          -0.514   3.535  -0.752  0.00  0.00     0.170 HD
ENDROOT
BRANCH   1  11
ATOM     11  C1  <0> d          -0.013   1.086   0.008  0.00  0.00    -0.021 C 
ATOM     12  H1  <0> d           0.002  -0.004   0.002  0.00  0.00     0.037 H 
ATOM     13  H2  <0> d           1.010   1.463   0.000  0.00  0.00     0.037 H 
ATOM     14  H3  <0> d          -0.523   1.437   0.905  0.00  0.00     0.037 H 
ENDBRANCH   1  11
TORSDOF 1
