REMARK  3 active torsions:
REMARK  status: ('A' for Active; 'I' for Inactive)
REMARK    1  A    between atoms: C3_3  and  N2_9 
REMARK    2  A    between atoms: C4_4  and  N1_8 
REMARK    3  A    between atoms: C5_5  and  O1_7 
ROOT
ATOM      1  C1  <0> d           1.208  -0.681  -0.013  0.00  0.00    -0.078 A 
ATOM      2  C2  <0> d           0.002  -0.004   0.002  0.00  0.00    -0.055 A 
ATOM      3  C3  <0> d          -0.017   1.383   0.010  0.00  0.00     0.055 A 
ATOM      4  C4  <0> d           1.182   2.093   0.002  0.00  0.00     0.086 A 
ATOM      5  C5  <0> d           2.391   1.407  -0.012  0.00  0.00     0.094 A 
ATOM      6  C6  <0> d           2.399   0.020  -0.020  0.00  0.00    -0.049 A 
ATOM      7  H1  <0> d           1.219  -1.761  -0.019  0.00  0.00     0.083 H 
ATOM      8  H2  <0> d          -0.926  -0.556   0.008  0.00  0.00     0.087 H 
ATOM      9  H3  <0> d           3.338  -0.513  -0.032  0.00  0.00     0.087 H 
ENDROOT
BRANCH   3  10
ATOM     10  N2  <0> d          -1.238   2.068   0.019  0.00  0.00    -0.397 N 
ATOM     11  H7  <0> d          -2.072   1.573   0.020  0.00  0.00     0.156 HD
ATOM     12  H8  <0> d          -1.250   3.038   0.025  0.00  0.00     0.156 HD
ENDBRANCH   3  10
BRANCH   4  13
ATOM     13  N1  <0> d           1.169   3.497   0.009  0.00  0.00    -0.395 N 
ATOM     14  H5  <0> d           0.324   3.974   0.019  0.00  0.00     0.156 HD
ATOM     15  H6  <0> d           2.004   3.990   0.004  0.00  0.00     0.156 HD
ENDBRANCH   4  13
BRANCH   5  16
ATOM     16  O1  <0> d           3.564   2.095  -0.018  0.00  0.00    -0.358 OA
ATOM     17  H4  <0> d           3.896   2.299  -0.904  0.00  0.00     0.217 HD
ENDBRANCH   5  16
TORSDOF 3
