REMARK  5 active torsions:
REMARK  status: ('A' for Active; 'I' for Inactive)
REMARK    1  A    between atoms: C1_1  and  C2_2 
REMARK    2  A    between atoms: C2_2  and  C3_3 
REMARK    3  A    between atoms: C2_2  and  C4_4 
REMARK    4  A    between atoms: C4_4  and  O2_6 
REMARK    5  A    between atoms: O2_6  and  C5_7 
ROOT
ATOM      1  C2  <0> d           1.280   1.975   0.000  0.00  0.00     0.023 C 
ATOM      2  H4  <0> d           1.321   2.607  -0.887  0.00  0.00     0.054 H 
ENDROOT
BRANCH   1   3
ATOM      3  C1  <0> d           1.361   2.849   1.254  0.00  0.00    -0.065 C 
ATOM      4  H1  <0> d           0.523   3.546   1.265  0.00  0.00     0.028 H 
ATOM      5  H2  <0> d           1.321   2.217   2.141  0.00  0.00     0.028 H 
ATOM      6  H3  <0> d           2.298   3.407   1.248  0.00  0.00     0.028 H 
ENDBRANCH   1   3
BRANCH   1   7
ATOM      7  C3  <0> d           2.457   0.997  -0.016  0.00  0.00    -0.065 C 
ATOM      8  H5  <0> d           2.399   0.374  -0.909  0.00  0.00     0.028 H 
ATOM      9  H6  <0> d           3.393   1.555  -0.022  0.00  0.00     0.028 H 
ATOM     10  H7  <0> d           2.416   0.365   0.871  0.00  0.00     0.028 H 
ENDBRANCH   1   7
BRANCH   1  11
ATOM     11  C4  <0> d          -0.014   1.204   0.009  0.00  0.00     0.261 C 
ATOM     12  O1  <0> d           0.002  -0.004   0.002  0.00  0.00    -0.265 OA
BRANCH  11  13
ATOM     13  O2  <0> d          -1.186   1.859   0.018  0.00  0.00    -0.326 OA
BRANCH  13  14
ATOM     14  C5  <0> d          -2.393   1.052   0.019  0.00  0.00     0.013 C 
ATOM     15  H8  <0> d          -2.413   0.428  -0.874  0.00  0.00     0.067 H 
ATOM     16  H9  <0> d          -2.405   0.418   0.906  0.00  0.00     0.067 H 
ATOM     17  H10 <0> d          -3.266   1.704   0.027  0.00  0.00     0.067 H 
ENDBRANCH  13  14
ENDBRANCH  11  13
ENDBRANCH   1  11
TORSDOF 5
