REMARK  0 active torsions:
REMARK  status: ('A' for Active; 'I' for Inactive)
ROOT
ATOM      1  C1  <0> d          -0.017   1.366   0.010  0.00  0.00     0.017 A 
ATOM      2  C2  <0> d           1.268   1.773  -0.001  0.00  0.00     0.142 A 
ATOM      3  N1  <0> d           2.049   0.681  -0.014  0.00  0.00    -0.231 NA
ATOM      4  C3  <0> d           1.297  -0.386  -0.012  0.00  0.00     0.065 A 
ATOM      5  N2  <0> d           0.002  -0.004   0.002  0.00  0.00    -0.357 N 
ATOM      6  H1  <0> d          -0.771  -0.590   0.006  0.00  0.00     0.166 HD
ATOM      7 Cl1  <0> d           1.817   3.420   0.003  0.00  0.00    -0.061 Cl
ATOM      8  H2  <0> d          -0.892   1.998   0.025  0.00  0.00     0.116 H 
ATOM      9  H3  <0> d           1.653  -1.406  -0.022  0.00  0.00     0.143 H 
ENDROOT
TORSDOF 0
