REMARK  4 active torsions:
REMARK  status: ('A' for Active; 'I' for Inactive)
REMARK    1  A    between atoms: C1_1  and  C2_2 
REMARK    2  A    between atoms: C2_2  and  C3_3 
REMARK    3  A    between atoms: C2_2  and  C4_4 
REMARK    4  A    between atoms: C5_7  and  N4_10 
ROOT
ATOM      1  C2  <0> d           0.002  -0.004   0.002  0.00  0.00     0.001 C 
ATOM      2  H5  <0> d           0.512  -0.356  -0.895  0.00  0.00     0.051 H 
ENDROOT
BRANCH   1   3
ATOM      3  C1  <0> d          -0.019   1.526   0.010  0.00  0.00    -0.066 C 
ATOM      4  H2  <0> d           1.004   1.903   0.003  0.00  0.00     0.028 H 
ATOM      5  H3  <0> d          -0.546   1.887  -0.873  0.00  0.00     0.028 H 
ATOM      6  H4  <0> d          -0.529   1.877   0.907  0.00  0.00     0.028 H 
ENDBRANCH   1   3
BRANCH   1   7
ATOM      7  C3  <0> d           0.742  -0.511   1.242  0.00  0.00    -0.066 C 
ATOM      8  H6  <0> d           0.232  -0.159   2.138  0.00  0.00     0.028 H 
ATOM      9  H7  <0> d           0.757  -1.601   1.236  0.00  0.00     0.028 H 
ATOM     10  H8  <0> d           1.765  -0.134   1.234  0.00  0.00     0.028 H 
ENDBRANCH   1   7
BRANCH   1  11
ATOM     11  C4  <0> d          -1.412  -0.526   0.013  0.00  0.00     0.169 A 
ATOM     12  N1  <0> d          -1.958  -1.298  -0.927  0.00  0.00    -0.046 NA
ATOM     13  C5  <0> d          -3.205  -1.571  -0.607  0.00  0.00     0.716 A 
ATOM     14  N2  <0> d          -3.474  -0.962   0.567  0.00  0.00    -0.106 N 
ATOM     15  H1  <0> d          -4.313  -0.981   1.053  0.00  0.00     0.208 HD
ATOM     16  N3  <0> d          -2.296  -0.298   0.947  0.00  0.00    -0.143 NA
BRANCH  13  17
ATOM     17  N4  <0> d          -4.084  -2.344  -1.344  0.00  0.00    -0.231 N 
ATOM     18  H9  <0> d          -3.797  -2.742  -2.180  0.00  0.00     0.174 HD
ATOM     19  H10 <0> d          -4.989  -2.489  -1.023  0.00  0.00     0.174 HD
ENDBRANCH  13  17
ENDBRANCH   1  11
TORSDOF 4
