REMARK  0 active torsions:
REMARK  status: ('A' for Active; 'I' for Inactive)
ROOT
ATOM      1  C1  <0> d          -0.735   1.582   1.265  0.00  0.00    -0.065 C 
ATOM      2  C2  <0> d          -2.177   1.069   1.272  0.00  0.00    -0.063 C 
ATOM      3  C3  <0> d          -2.914   1.555   0.020  0.00  0.00    -0.046 C 
ATOM      4  C4  <0> d          -2.181   1.038  -1.216  0.00  0.00     0.015 C 
ATOM      5  H1  <0> d          -2.132  -0.048  -1.151  0.00  0.00     0.073 H 
ATOM      6  C5  <0> d          -0.756   1.594  -1.226  0.00  0.00    -0.034 C 
ATOM      7  H2  <0> d          -0.792   2.683  -1.205  0.00  0.00     0.043 H 
ATOM      8  C6  <0> d          -0.013   1.086   0.008  0.00  0.00    -0.060 C 
ATOM      9  C7  <0> d          -0.064   1.133  -2.509  0.00  0.00    -0.052 C 
ATOM     10  C8  <0> d          -0.746   1.821  -3.695  0.00  0.00     0.010 C 
ATOM     11  C9  <0> d          -2.239   1.722  -3.572  0.00  0.00     0.217 C 
ATOM     12  O1  <0> d          -2.908   1.942  -4.559  0.00  0.00    -0.274 OA
ATOM     13  N1  <0> d          -2.874   1.405  -2.440  0.00  0.00    -0.356 N 
ATOM     14  H3  <0> d          -0.213   1.218   2.150  0.00  0.00     0.033 H 
ATOM     15  H4  <0> d          -0.739   2.672   1.272  0.00  0.00     0.033 H 
ATOM     16  H5  <0> d          -2.689   1.441   2.160  0.00  0.00     0.033 H 
ATOM     17  H6  <0> d          -2.171  -0.021   1.288  0.00  0.00     0.033 H 
ATOM     18  H7  <0> d          -2.930   2.645   0.006  0.00  0.00     0.036 H 
ATOM     19  H8  <0> d          -3.935   1.173   0.025  0.00  0.00     0.036 H 
ATOM     20  H9  <0> d           0.002  -0.004   0.002  0.00  0.00     0.033 H 
ATOM     21  H10 <0> d           1.009   1.465   0.000  0.00  0.00     0.033 H 
ATOM     22  H11 <0> d           0.989   1.410  -2.479  0.00  0.00     0.034 H 
ATOM     23  H12 <0> d          -0.157   0.051  -2.608  0.00  0.00     0.034 H 
ATOM     24  H13 <0> d          -0.455   2.871  -3.719  0.00  0.00     0.047 H 
ATOM     25  H14 <0> d          -0.431   1.339  -4.621  0.00  0.00     0.047 H 
ATOM     26  H15 <0> d          -3.844   1.418  -2.436  0.00  0.00     0.162 HD
ENDROOT
TORSDOF 0
