REMARK  4 active torsions:
REMARK  status: ('A' for Active; 'I' for Inactive)
REMARK    1  A    between atoms: C1_1  and  C2_2 
REMARK    2  A    between atoms: C2_2  and  O1_3 
REMARK    3  A    between atoms: O1_3  and  C3_4 
REMARK    4  A    between atoms: C3_4  and  C4_6 
ROOT
ATOM      1  C3  <0> d          -2.503   1.004   0.020  0.00  0.00     0.313 C 
ATOM      2  O2  <0> d          -2.490  -0.210   0.013  0.00  0.00    -0.257 OA
ENDROOT
BRANCH   1   3
ATOM      3  O1  <0> d          -3.677   1.665   0.029  0.00  0.00    -0.317 OA
BRANCH   3   4
ATOM      4  C2  <0> d          -4.886   0.861   0.031  0.00  0.00     0.026 C 
ATOM      5  H4  <0> d          -4.908   0.237  -0.862  0.00  0.00     0.074 H 
ATOM      6  H5  <0> d          -4.900   0.228   0.918  0.00  0.00     0.074 H 
BRANCH   4   7
ATOM      7  C1  <0> d          -6.109   1.780   0.041  0.00  0.00    -0.056 C 
ATOM      8  H1  <0> d          -6.087   2.405   0.934  0.00  0.00     0.030 H 
ATOM      9  H2  <0> d          -6.095   2.414  -0.845  0.00  0.00     0.030 H 
ATOM     10  H3  <0> d          -7.017   1.177   0.043  0.00  0.00     0.030 H 
ENDBRANCH   4   7
ENDBRANCH   3   4
ENDBRANCH   1   3
BRANCH   1  11
ATOM     11  C4  <0> d          -1.229   1.758   0.017  0.00  0.00     0.148 A 
ATOM     12  N2  <0> d          -1.241   3.088   0.029  0.00  0.00    -0.252 NA
ATOM     13  C7  <0> d          -0.105   3.756   0.022  0.00  0.00     0.020 A 
ATOM     14  C6  <0> d           1.104   3.074   0.008  0.00  0.00     0.019 A 
ATOM     15  H8  <0> d          -0.114   4.836   0.027  0.00  0.00     0.117 H 
ATOM     16  N1  <0> d           1.121   1.753   0.001  0.00  0.00    -0.269 NA
ATOM     17  H7  <0> d           2.033   3.625   0.001  0.00  0.00     0.117 H 
ATOM     18  C5  <0> d          -0.013   1.076   0.008  0.00  0.00     0.035 A 
ATOM     19  H6  <0> d           0.002  -0.004   0.002  0.00  0.00     0.118 H 
ENDBRANCH   1  11
TORSDOF 4
