REMARK  4 active torsions:
REMARK  status: ('A' for Active; 'I' for Inactive)
REMARK    1  A    between atoms: C1_1  and  C2_2 
REMARK    2  A    between atoms: N2_5  and  C5_7 
REMARK    3  A    between atoms: C5_7  and  C6_8 
REMARK    4  A    between atoms: C6_8  and  C7_9 
ROOT
ATOM      1  C2  <0> d          -1.116   1.859   0.017  0.00  0.00    -0.026 A 
ATOM      2  C3  <0> d          -0.697   3.193   0.025  0.00  0.00     0.029 A 
ATOM      3  N1  <0> d           0.611   3.211   0.013  0.00  0.00    -0.185 NA
ATOM      4  N2  <0> d           1.067   1.886   0.002  0.00  0.00    -0.280 N 
ATOM      5  C4  <0> d          -0.013   1.076   0.008  0.00  0.00     0.005 A 
ATOM      6  H4  <0> d          -1.342   4.059   0.035  0.00  0.00     0.118 H 
ATOM      7  H5  <0> d           0.002  -0.004   0.002  0.00  0.00     0.115 H 
ENDROOT
BRANCH   4   8
ATOM      8  C5  <0> d           2.467   1.456  -0.013  0.00  0.00     0.025 C 
ATOM      9  H6  <0> d           2.950   1.761   0.916  0.00  0.00     0.068 H 
ATOM     10  H7  <0> d           2.513   0.372  -0.107  0.00  0.00     0.068 H 
BRANCH   8  11
ATOM     11  C6  <0> d           3.187   2.103  -1.198  0.00  0.00     0.032 C 
ATOM     12  H8  <0> d           2.704   1.799  -2.126  0.00  0.00     0.051 H 
ATOM     13  H9  <0> d           3.140   3.188  -1.103  0.00  0.00     0.051 H 
BRANCH  11  14
ATOM     14  C7  <0> d           4.627   1.661  -1.213  0.00  0.00     0.174 C 
ATOM     15  O1  <0> d           5.036   0.906  -0.362  0.00  0.00    -0.648 OA
ATOM     16  O2  <0> d           5.456   2.106  -2.170  0.00  0.00    -0.648 OA
ENDBRANCH  11  14
ENDBRANCH   8  11
ENDBRANCH   4   8
BRANCH   1  17
ATOM     17  C1  <0> d          -2.544   1.378   0.021  0.00  0.00    -0.049 C 
ATOM     18  H1  <0> d          -2.884   1.257   1.049  0.00  0.00     0.033 H 
ATOM     19  H2  <0> d          -3.175   2.108  -0.487  0.00  0.00     0.033 H 
ATOM     20  H3  <0> d          -2.607   0.421  -0.497  0.00  0.00     0.033 H 
ENDBRANCH   1  17
TORSDOF 4
