REMARK  4 active torsions:
REMARK  status: ('A' for Active; 'I' for Inactive)
REMARK    1  A    between atoms: C1_1  and  C2_2 
REMARK    2  A    between atoms: C4_4  and  O1_14 
REMARK    3  A    between atoms: C8_11  and  C9_12 
REMARK    4  A    between atoms: C8_11  and  C10_13 
ROOT
ATOM      1  C2  <0> d          -2.242   0.877  -1.159  0.00  0.00    -0.080 C 
ATOM      2  C3  <0> d          -2.808   0.455  -0.043  0.00  0.00    -0.073 C 
ATOM      3  C4  <0> d          -2.179   0.792   1.288  0.00  0.00     0.056 C 
ATOM      4  H1  <0> d          -1.870  -0.126   1.786  0.00  0.00     0.089 H 
ATOM      5  C5  <0> d          -0.955   1.692   1.068  0.00  0.00    -0.018 C 
ATOM      6  H2  <0> d          -0.465   2.019   1.986  0.00  0.00     0.045 H 
ATOM      7  C6  <0> d          -0.013   1.086   0.008  0.00  0.00    -0.051 C 
ATOM      8  C7  <0> d          -0.974   1.702  -1.026  0.00  0.00    -0.025 C 
ATOM      9  H3  <0> d          -0.525   2.024  -1.966  0.00  0.00     0.048 H 
ATOM     10  C8  <0> d          -1.210   2.805   0.035  0.00  0.00    -0.034 C 
ATOM     11  H7  <0> d          -3.715  -0.130  -0.082  0.00  0.00     0.081 H 
ATOM     12  H8  <0> d           0.002  -0.004   0.002  0.00  0.00     0.034 H 
ATOM     13  H9  <0> d           0.984   1.526   0.001  0.00  0.00     0.034 H 
ENDROOT
BRANCH  10  14
ATOM     14  C9  <0> d          -0.143   3.903   0.035  0.00  0.00    -0.068 C 
ATOM     15  H10 <0> d          -0.344   4.604  -0.775  0.00  0.00     0.028 H 
ATOM     16  H11 <0> d          -0.167   4.431   0.988  0.00  0.00     0.028 H 
ATOM     17  H12 <0> d           0.840   3.454  -0.108  0.00  0.00     0.028 H 
ENDBRANCH  10  14
BRANCH  10  18
ATOM     18  C10 <0> d          -2.637   3.356   0.048  0.00  0.00    -0.068 C 
ATOM     19  H13 <0> d          -3.344   2.538  -0.085  0.00  0.00     0.028 H 
ATOM     20  H14 <0> d          -2.827   3.848   1.002  0.00  0.00     0.028 H 
ATOM     21  H15 <0> d          -2.757   4.076  -0.762  0.00  0.00     0.028 H 
ENDBRANCH  10  18
BRANCH   3  22
ATOM     22  O1  <0> d          -3.132   1.477   2.103  0.00  0.00    -0.391 OA
ATOM     23  H16 <0> d          -3.934   0.967   2.284  0.00  0.00     0.210 HD
ENDBRANCH   3  22
BRANCH   1  24
ATOM     24  C1  <0> d          -2.829   0.555  -2.509  0.00  0.00    -0.054 C 
ATOM     25  H4  <0> d          -2.407  -0.381  -2.875  0.00  0.00     0.033 H 
ATOM     26  H5  <0> d          -3.910   0.457  -2.421  0.00  0.00     0.033 H 
ATOM     27  H6  <0> d          -2.592   1.358  -3.208  0.00  0.00     0.033 H 
ENDBRANCH   1  24
TORSDOF 4
