REMARK  1 active torsions:
REMARK  status: ('A' for Active; 'I' for Inactive)
REMARK    1  A    between atoms: C7_7  and  O2_12 
ROOT
ATOM      1  C1  <0> d           1.166   2.094   0.002  0.00  0.00    -0.082 A 
ATOM      2  C2  <0> d           2.376   1.425  -0.013  0.00  0.00    -0.080 A 
ATOM      3  C3  <0> d           2.401   0.046  -0.023  0.00  0.00    -0.050 A 
ATOM      4  C4  <0> d           1.212  -0.676  -0.017  0.00  0.00     0.077 A 
ATOM      5  C5  <0> d           0.002  -0.004   0.002  0.00  0.00     0.004 A 
ATOM      6  C6  <0> d          -0.017   1.381   0.010  0.00  0.00    -0.072 A 
ATOM      7  C7  <0> d          -1.309  -0.748   0.021  0.00  0.00     0.065 C 
ATOM      8  H1  <0> d          -1.716  -0.740   1.033  0.00  0.00     0.090 H 
ATOM      9  C8  <0> d          -1.089  -2.194  -0.428  0.00  0.00    -0.017 C 
ATOM     10  C9  <0> d           0.109  -2.762   0.345  0.00  0.00     0.029 C 
ATOM     11  O1  <0> d           1.277  -2.033  -0.036  0.00  0.00    -0.350 OA
ATOM     12  H2  <0> d           1.145   3.174   0.008  0.00  0.00     0.083 H 
ATOM     13  H3  <0> d           3.301   1.983  -0.017  0.00  0.00     0.083 H 
ATOM     14  H4  <0> d           3.347  -0.475  -0.035  0.00  0.00     0.087 H 
ATOM     15  H5  <0> d          -0.961   1.905   0.017  0.00  0.00     0.084 H 
ATOM     16  H6  <0> d          -0.881  -2.219  -1.498  0.00  0.00     0.040 H 
ATOM     17  H7  <0> d          -1.979  -2.785  -0.212  0.00  0.00     0.040 H 
ATOM     18  H8  <0> d           0.238  -3.816   0.099  0.00  0.00     0.075 H 
ATOM     19  H9  <0> d          -0.059  -2.652   1.416  0.00  0.00     0.075 H 
ENDROOT
BRANCH   7  20
ATOM     20  O2  <0> d          -2.231  -0.110  -0.865  0.00  0.00    -0.391 OA
ATOM     21  H10 <0> d          -2.421   0.811  -0.639  0.00  0.00     0.210 HD
ENDBRANCH   7  20
TORSDOF 1
