REMARK  3 active torsions:
REMARK  status: ('A' for Active; 'I' for Inactive)
REMARK    1  A    between atoms: C1_1  and  O1_2 
REMARK    2  A    between atoms: O1_2  and  C2_3 
REMARK    3  A    between atoms: C6_8  and  C8_11 
ROOT
ATOM      1  C2  <0> d           3.771   1.780  -0.024  0.00  0.00     0.038 C 
ATOM      2  H1  <0> d           3.829   2.402   0.868  0.00  0.00     0.083 H 
ATOM      3  C3  <0> d           3.828   2.667  -1.270  0.00  0.00    -0.041 C 
ATOM      4  C4  <0> d           2.652   3.646  -1.253  0.00  0.00    -0.062 C 
ATOM      5  C5  <0> d           1.338   2.863  -1.245  0.00  0.00    -0.052 C 
ATOM      6  C6  <0> d           1.280   1.975   0.000  0.00  0.00     0.033 C 
ATOM      7  H2  <0> d           1.338   2.598   0.893  0.00  0.00     0.056 H 
ATOM      8  C7  <0> d           2.457   0.997  -0.016  0.00  0.00    -0.028 C 
ATOM      9  H6  <0> d           4.765   3.225  -1.275  0.00  0.00     0.036 H 
ATOM     10  H7  <0> d           3.771   2.045  -2.162  0.00  0.00     0.036 H 
ATOM     11  H8  <0> d           2.710   4.268  -0.360  0.00  0.00     0.033 H 
ATOM     12  H9  <0> d           2.693   4.278  -2.140  0.00  0.00     0.033 H 
ATOM     13  H10 <0> d           1.280   2.240  -2.138  0.00  0.00     0.034 H 
ATOM     14  H11 <0> d           0.500   3.559  -1.233  0.00  0.00     0.034 H 
ATOM     15  H12 <0> d           2.416   0.365   0.871  0.00  0.00     0.038 H 
ATOM     16  H13 <0> d           2.399   0.374  -0.909  0.00  0.00     0.038 H 
ENDROOT
BRANCH   1  17
ATOM     17  O1  <0> d           4.870   0.866  -0.040  0.00  0.00    -0.391 OA
BRANCH  17  18
ATOM     18  C1  <0> d           6.046   1.360   0.604  0.00  0.00     0.004 C 
ATOM     19  H3  <0> d           6.833   0.608   0.550  0.00  0.00     0.066 H 
ATOM     20  H4  <0> d           6.378   2.271   0.106  0.00  0.00     0.066 H 
ATOM     21  H5  <0> d           5.823   1.578   1.649  0.00  0.00     0.066 H 
ENDBRANCH  17  18
ENDBRANCH   1  17
BRANCH   6  22
ATOM     22  C8  <0> d          -0.014   1.204   0.009  0.00  0.00     0.177 C 
ATOM     23  O2  <0> d           0.002  -0.004   0.002  0.00  0.00    -0.648 OA
ATOM     24  O3  <0> d          -1.186   1.859   0.018  0.00  0.00    -0.648 OA
ENDBRANCH   6  22
TORSDOF 3
