REMARK  5 active torsions:
REMARK  status: ('A' for Active; 'I' for Inactive)
REMARK    1  A    between atoms: C1_1  and  C2_2 
REMARK    2  A    between atoms: C2_2  and  C3_3 
REMARK    3  A    between atoms: C2_2  and  N1_4 
REMARK    4  A    between atoms: N1_4  and  C4_5 
REMARK    5  A    between atoms: C8_9  and  C10_11 
ROOT
ATOM      1  C10 <0> d           1.432  -3.927  -4.544  0.00  0.00    -0.078 C 
ATOM      2  C11 <0> d           1.979  -4.311  -5.509  0.00  0.00    -0.149 C 
ATOM      3  H13 <0> d           2.491  -4.672  -6.413  0.00  0.00     0.166 H 
ENDROOT
BRANCH   1   4
ATOM      4  C8  <0> d           0.766  -3.458  -3.366  0.00  0.00     0.019 A 
ATOM      5  C7  <0> d          -0.173  -4.266  -2.724  0.00  0.00    -0.065 A 
ATOM      6  C6  <0> d          -0.813  -3.813  -1.588  0.00  0.00    -0.079 A 
ATOM      7  H11 <0> d          -0.398  -5.248  -3.115  0.00  0.00     0.085 H 
ATOM      8  C5  <0> d          -0.525  -2.560  -1.081  0.00  0.00    -0.057 A 
ATOM      9  H10 <0> d          -1.539  -4.440  -1.093  0.00  0.00     0.083 H 
ATOM     10  C4  <0> d           0.404  -1.744  -1.717  0.00  0.00     0.029 A 
ATOM     11  H9  <0> d          -1.026  -2.212  -0.190  0.00  0.00     0.086 H 
ATOM     12  C9  <0> d           1.053  -2.192  -2.857  0.00  0.00    -0.040 A 
ATOM     13  H12 <0> d           1.778  -1.561  -3.351  0.00  0.00     0.089 H 
BRANCH  10  14
ATOM     14  N1  <0> d           0.688  -0.476  -1.203  0.00  0.00    -0.386 N 
ATOM     15  H8  <0> d           1.426   0.167  -1.704  0.00  0.00     0.160 HD
BRANCH  14  16
ATOM     16  C2  <0> d           0.002  -0.004   0.002  0.00  0.00     0.003 C 
ATOM     17  H4  <0> d          -1.022  -0.405  -0.029  0.00  0.00     0.071 H 
BRANCH  16  18
ATOM     18  C1  <0> d          -0.019   1.526   0.010  0.00  0.00    -0.058 C 
ATOM     19  H1  <0> d          -0.551   1.890  -0.881  0.00  0.00     0.030 H 
ATOM     20  H2  <0> d           1.013   1.907   0.003  0.00  0.00     0.030 H 
ATOM     21  H3  <0> d          -0.534   1.881   0.915  0.00  0.00     0.030 H 
ENDBRANCH  16  18
BRANCH  16  22
ATOM     22  C3  <0> d           0.742  -0.511   1.242  0.00  0.00    -0.058 C 
ATOM     23  H5  <0> d           0.757  -1.611   1.235  0.00  0.00     0.030 H 
ATOM     24  H6  <0> d           0.227  -0.156   2.147  0.00  0.00     0.030 H 
ATOM     25  H7  <0> d           1.774  -0.130   1.234  0.00  0.00     0.030 H 
ENDBRANCH  16  22
ENDBRANCH  14  16
ENDBRANCH  10  14
ENDBRANCH   1   4
TORSDOF 5
