REMARK  1 active torsions:
REMARK  status: ('A' for Active; 'I' for Inactive)
REMARK    1  A    between atoms: C7_7  and  N3_11 
ROOT
ATOM      1  C1  <0> d          -0.016   1.354   0.009  0.00  0.00    -0.082 A 
ATOM      2  C2  <0> d           1.161   2.104   0.002  0.00  0.00    -0.081 A 
ATOM      3  C3  <0> d           2.384   1.514  -0.013  0.00  0.00    -0.055 A 
ATOM      4  C4  <0> d           2.478   0.106  -0.021  0.00  0.00     0.062 A 
ATOM      5  C5  <0> d           1.236  -0.682  -0.013  0.00  0.00     0.037 A 
ATOM      6  C6  <0> d           0.002  -0.004   0.002  0.00  0.00    -0.067 A 
ATOM      7  C7  <0> d           1.621  -2.020  -0.025  0.00  0.00     0.126 A 
ATOM      8  N1  <0> d           2.963  -2.058  -0.038  0.00  0.00    -0.285 N 
ATOM      9  H1  <0> d           3.497  -2.868  -0.048  0.00  0.00     0.188 HD
ATOM     10  N2  <0> d           3.478  -0.757  -0.036  0.00  0.00    -0.298 N 
ATOM     11  H2  <0> d          -0.967   1.867   0.026  0.00  0.00     0.083 H 
ATOM     12  H3  <0> d           1.098   3.182   0.008  0.00  0.00     0.083 H 
ATOM     13  H4  <0> d           3.278   2.119  -0.018  0.00  0.00     0.087 H 
ATOM     14  H5  <0> d          -0.924  -0.560   0.008  0.00  0.00     0.085 H 
ATOM     15  H8  <0> d           4.420  -0.525  -0.044  0.00  0.00     0.187 HD
ENDROOT
BRANCH   7  16
ATOM     16  N3  <0> d           0.771  -3.116  -0.022  0.00  0.00    -0.384 N 
ATOM     17  H6  <0> d          -0.190  -2.984  -0.012  0.00  0.00     0.157 HD
ATOM     18  H7  <0> d           1.138  -4.013  -0.031  0.00  0.00     0.157 HD
ENDBRANCH   7  16
TORSDOF 1
