REMARK  4 active torsions:
REMARK  status: ('A' for Active; 'I' for Inactive)
REMARK    1  A    between atoms: C1_1  and  C2_2 
REMARK    2  A    between atoms: C2_2  and  C3_3 
REMARK    3  A    between atoms: C3_3  and  C4_4 
REMARK    4  A    between atoms: C9_10  and  O1_12 
ROOT
ATOM      1  C4  <0> d          -0.013   1.086   0.008  0.00  0.00    -0.029 C 
ATOM      2  H1  <0> d           0.002  -0.004   0.002  0.00  0.00     0.043 H 
ATOM      3  C5  <0> d          -0.729   1.579   1.267  0.00  0.00    -0.059 C 
ATOM      4  C6  <0> d          -2.164   1.050   1.278  0.00  0.00    -0.065 C 
ATOM      5  C7  <0> d          -2.904   1.556   0.038  0.00  0.00    -0.063 C 
ATOM      6  C8  <0> d          -2.188   1.063  -1.221  0.00  0.00    -0.041 C 
ATOM      7  C9  <0> d          -0.753   1.593  -1.232  0.00  0.00     0.039 C 
ATOM      8  H2  <0> d          -0.767   2.683  -1.226  0.00  0.00     0.083 H 
ATOM      9  H10 <0> d          -0.202   1.218   2.150  0.00  0.00     0.033 H 
ATOM     10  H11 <0> d          -0.744   2.669   1.273  0.00  0.00     0.033 H 
ATOM     11  H12 <0> d          -2.149  -0.040   1.272  0.00  0.00     0.033 H 
ATOM     12  H13 <0> d          -2.674   1.401   2.175  0.00  0.00     0.033 H 
ATOM     13  H14 <0> d          -3.927   1.179   0.046  0.00  0.00     0.033 H 
ATOM     14  H15 <0> d          -2.919   2.646   0.044  0.00  0.00     0.033 H 
ATOM     15  H16 <0> d          -2.173  -0.027  -1.227  0.00  0.00     0.036 H 
ATOM     16  H17 <0> d          -2.715   1.424  -2.104  0.00  0.00     0.036 H 
ENDROOT
BRANCH   1  17
ATOM     17  C3  <0> d           1.423   1.615  -0.003  0.00  0.00    -0.060 C 
ATOM     18  H8  <0> d           1.905   1.339  -0.940  0.00  0.00     0.033 H 
ATOM     19  H9  <0> d           1.410   2.701   0.093  0.00  0.00     0.033 H 
BRANCH  17  20
ATOM     20  C2  <0> d           2.199   1.009   1.168  0.00  0.00    -0.068 C 
ATOM     21  H6  <0> d           1.716   1.286   2.106  0.00  0.00     0.032 H 
ATOM     22  H7  <0> d           2.211  -0.076   1.073  0.00  0.00     0.032 H 
BRANCH  20  23
ATOM     23  C1  <0> d           3.634   1.539   1.157  0.00  0.00    -0.077 C 
ATOM     24  H3  <0> d           3.622   2.625   1.253  0.00  0.00     0.027 H 
ATOM     25  H4  <0> d           4.187   1.107   1.992  0.00  0.00     0.027 H 
ATOM     26  H5  <0> d           4.116   1.262   0.220  0.00  0.00     0.027 H 
ENDBRANCH  20  23
ENDBRANCH  17  20
ENDBRANCH   1  17
BRANCH   7  27
ATOM     27  O1  <0> d          -0.084   1.132  -2.407  0.00  0.00    -0.395 OA
ATOM     28  H18 <0> d          -0.499   1.416  -3.233  0.00  0.00     0.210 HD
ENDBRANCH   7  27
TORSDOF 4
