REMARK  4 active torsions:
REMARK  status: ('A' for Active; 'I' for Inactive)
REMARK    1  A    between atoms: C1_1  and  C2_2 
REMARK    2  A    between atoms: C2_2  and  C3_3 
REMARK    3  A    between atoms: C2_2  and  C4_4 
REMARK    4  A    between atoms: C4_4  and  N1_5 
ROOT
ATOM      1  C4  <0> d          -0.019   1.526   0.010  0.00  0.00     0.000 C 
ATOM      2  H8  <0> d           1.004   1.903   0.003  0.00  0.00     0.065 H 
ATOM      3  H9  <0> d          -0.546   1.887  -0.873  0.00  0.00     0.065 H 
ENDROOT
BRANCH   1   4
ATOM      4  C2  <0> d           0.002  -0.004   0.002  0.00  0.00    -0.045 C 
ATOM      5  H4  <0> d           0.450  -0.366   0.927  0.00  0.00     0.041 H 
BRANCH   4   6
ATOM      6  C1  <0> d          -1.429  -0.533  -0.113  0.00  0.00    -0.072 C 
ATOM      7  H1  <0> d          -1.877  -0.171  -1.038  0.00  0.00     0.028 H 
ATOM      8  H2  <0> d          -1.414  -1.623  -0.119  0.00  0.00     0.028 H 
ATOM      9  H3  <0> d          -2.015  -0.182   0.737  0.00  0.00     0.028 H 
ENDBRANCH   4   6
BRANCH   4  10
ATOM     10  C3  <0> d           0.825  -0.496  -1.190  0.00  0.00    -0.072 C 
ATOM     11  H5  <0> d           1.845  -0.120  -1.108  0.00  0.00     0.028 H 
ATOM     12  H6  <0> d           0.840  -1.586  -1.196  0.00  0.00     0.028 H 
ATOM     13  H7  <0> d           0.377  -0.134  -2.115  0.00  0.00     0.028 H 
ENDBRANCH   4  10
ENDBRANCH   1   4
BRANCH   1  14
ATOM     14  N1  <0> d          -0.704   1.998   1.216  0.00  0.00    -0.352 N 
ATOM     15  C8  <0> d          -0.093   2.253   2.385  0.00  0.00     0.219 C 
ATOM     16  C7  <0> d          -1.105   2.713   3.412  0.00  0.00     0.011 C 
ATOM     17  O1  <0> d           1.097   2.133   2.588  0.00  0.00    -0.273 OA
ATOM     18  C6  <0> d          -2.469   2.300   2.812  0.00  0.00    -0.042 C 
ATOM     19  H14 <0> d          -0.939   2.209   4.364  0.00  0.00     0.047 H 
ATOM     20  H15 <0> d          -1.054   3.794   3.540  0.00  0.00     0.047 H 
ATOM     21  C5  <0> d          -2.146   2.260   1.300  0.00  0.00    -0.002 C 
ATOM     22  H12 <0> d          -2.774   1.319   3.176  0.00  0.00     0.036 H 
ATOM     23  H13 <0> d          -3.232   3.048   3.026  0.00  0.00     0.036 H 
ATOM     24  H10 <0> d          -2.384   3.217   0.835  0.00  0.00     0.064 H 
ATOM     25  H11 <0> d          -2.704   1.457   0.817  0.00  0.00     0.064 H 
ENDBRANCH   1  14
TORSDOF 4
