REMARK  1 active torsions:
REMARK  status: ('A' for Active; 'I' for Inactive)
REMARK    1  A    between atoms: C10_10  and  O1_12 
ROOT
ATOM      1  C1  <0> d          -1.343   3.509   0.029  0.00  0.00    -0.082 A 
ATOM      2  C2  <0> d          -0.188   4.269   0.019  0.00  0.00    -0.082 A 
ATOM      3  C3  <0> d           1.043   3.645   0.006  0.00  0.00    -0.074 A 
ATOM      4  C4  <0> d           1.131   2.259   0.003  0.00  0.00    -0.023 A 
ATOM      5  C5  <0> d          -0.018   1.502   0.010  0.00  0.00    -0.049 A 
ATOM      6  C6  <0> d          -1.256   2.132   0.019  0.00  0.00    -0.076 A 
ATOM      7  C7  <0> d           0.002  -0.004   0.002  0.00  0.00    -0.040 C 
ATOM      8  C8  <0> d           1.376  -0.525   0.418  0.00  0.00    -0.059 C 
ATOM      9  C9  <0> d           2.438   0.180  -0.434  0.00  0.00    -0.037 C 
ATOM     10  C10 <0> d           2.507   1.644  -0.004  0.00  0.00     0.061 C 
ATOM     11  H1  <0> d           2.933   1.705   0.997  0.00  0.00     0.090 H 
ATOM     12  H2  <0> d          -2.309   3.991   0.041  0.00  0.00     0.083 H 
ATOM     13  H3  <0> d          -0.249   5.347   0.020  0.00  0.00     0.083 H 
ATOM     14  H4  <0> d           1.944   4.240  -0.003  0.00  0.00     0.084 H 
ATOM     15  H5  <0> d          -2.159   1.539   0.024  0.00  0.00     0.084 H 
ATOM     16  H6  <0> d          -0.749  -0.378   0.698  0.00  0.00     0.040 H 
ATOM     17  H7  <0> d          -0.229  -0.361  -1.002  0.00  0.00     0.040 H 
ATOM     18  H8  <0> d           1.548  -0.307   1.472  0.00  0.00     0.033 H 
ATOM     19  H9  <0> d           1.427  -1.601   0.251  0.00  0.00     0.033 H 
ATOM     20  H10 <0> d           3.408  -0.294  -0.279  0.00  0.00     0.037 H 
ATOM     21  H11 <0> d           2.164   0.119  -1.487  0.00  0.00     0.037 H 
ENDROOT
BRANCH  10  22
ATOM     22  O1  <0> d           3.339   2.365  -0.915  0.00  0.00    -0.391 OA
ATOM     23  H12 <0> d           3.431   3.304  -0.706  0.00  0.00     0.210 HD
ENDBRANCH  10  22
TORSDOF 1
