REMARK  1 active torsions:
REMARK  status: ('A' for Active; 'I' for Inactive)
REMARK    1  A    between atoms: C3_3  and  C6_8 
ROOT
ATOM      1  C1  <0> d          -0.017   1.384   0.010  0.00  0.00    -0.042 A 
ATOM      2  C2  <0> d           1.192   2.061   0.002  0.00  0.00    -0.045 A 
ATOM      3  C3  <0> d           2.378   1.330  -0.013  0.00  0.00     0.133 A 
ATOM      4  N1  <0> d           2.354   0.002  -0.020  0.00  0.00    -0.251 NA
ATOM      5  C4  <0> d           1.223  -0.667  -0.013  0.00  0.00     0.040 A 
ATOM      6  C5  <0> d           0.002  -0.004   0.002  0.00  0.00     0.133 A 
ATOM      7  F1  <0> d          -1.154  -0.703   0.010  0.00  0.00    -0.205 F 
ATOM      8  H1  <0> d          -0.952   1.924   0.017  0.00  0.00     0.088 H 
ATOM      9  H2  <0> d           1.214   3.141   0.007  0.00  0.00     0.087 H 
ATOM     10  H3  <0> d           1.243  -1.747  -0.019  0.00  0.00     0.119 H 
ENDROOT
BRANCH   3  11
ATOM     11  C6  <0> d           3.676   2.039  -0.023  0.00  0.00     0.228 C 
ATOM     12  O1  <0> d           3.705   3.253  -0.016  0.00  0.00    -0.643 OA
ATOM     13  O2  <0> d           4.827   1.338  -0.038  0.00  0.00    -0.643 OA
ENDBRANCH   3  11
TORSDOF 1
