REMARK  8 active torsions:
REMARK  status: ('A' for Active; 'I' for Inactive)
REMARK    1  A    between atoms: C1_1  and  C2_2 
REMARK    2  A    between atoms: C2_2  and  C3_3 
REMARK    3  A    between atoms: C3_3  and  O1_4 
REMARK    4  A    between atoms: O1_4  and  C4_5 
REMARK    5  A    between atoms: C4_5  and  C5_6 
REMARK    6  A    between atoms: C5_6  and  C6_8 
REMARK    7  A    between atoms: C5_6  and  O3_10 
REMARK    8  A    between atoms: C6_8  and  O2_9 
ROOT
ATOM      1  C4  <0> d          -0.013   1.086   0.008  0.00  0.00     0.045 C 
ATOM      2  H9  <0> d           0.002  -0.004   0.002  0.00  0.00     0.078 H 
ATOM      3  H10 <0> d           1.010   1.463   0.000  0.00  0.00     0.078 H 
ENDROOT
BRANCH   1   4
ATOM      4  O1  <0> d          -0.704   1.559  -1.150  0.00  0.00    -0.389 OA
BRANCH   4   5
ATOM      5  C3  <0> d          -0.114   1.152  -2.386  0.00  0.00     0.019 C 
ATOM      6  H7  <0> d           0.907   1.531  -2.443  0.00  0.00     0.074 H 
ATOM      7  H8  <0> d          -0.101   0.064  -2.442  0.00  0.00     0.074 H 
BRANCH   5   8
ATOM      8  C2  <0> d          -0.932   1.713  -3.551  0.00  0.00    -0.049 C 
ATOM      9  H5  <0> d          -1.952   1.334  -3.493  0.00  0.00     0.035 H 
ATOM     10  H6  <0> d          -0.945   2.801  -3.495  0.00  0.00     0.035 H 
BRANCH   8  11
ATOM     11  C1  <0> d          -0.300   1.277  -4.874  0.00  0.00    -0.075 C 
ATOM     12  H2  <0> d          -0.883   1.677  -5.704  0.00  0.00     0.027 H 
ATOM     13  H3  <0> d           0.721   1.656  -4.932  0.00  0.00     0.027 H 
ATOM     14  H4  <0> d          -0.287   0.189  -4.930  0.00  0.00     0.027 H 
ENDBRANCH   8  11
ENDBRANCH   5   8
ENDBRANCH   4   5
ENDBRANCH   1   4
BRANCH   1  15
ATOM     15  C5  <0> d          -0.729   1.579   1.267  0.00  0.00     0.076 C 
ATOM     16  H1  <0> d          -0.822   2.665   1.230  0.00  0.00     0.089 H 
BRANCH  15  17
ATOM     17  C6  <0> d           0.079   1.179   2.503  0.00  0.00     0.042 C 
ATOM     18  H11 <0> d           0.097   0.092   2.589  0.00  0.00     0.078 H 
ATOM     19  H12 <0> d           1.098   1.553   2.408  0.00  0.00     0.078 H 
BRANCH  17  20
ATOM     20  O2  <0> d          -0.527   1.738   3.670  0.00  0.00    -0.398 OA
ATOM     21  H13 <0> d          -0.067   1.525   4.493  0.00  0.00     0.209 HD
ENDBRANCH  17  20
ENDBRANCH  15  17
BRANCH  15  22
ATOM     22  O3  <0> d          -2.030   0.991   1.336  0.00  0.00    -0.391 OA
ATOM     23  H14 <0> d          -2.023   0.025   1.372  0.00  0.00     0.210 HD
ENDBRANCH  15  22
ENDBRANCH   1  15
TORSDOF 8
