REMARK  1 active torsions:
REMARK  status: ('A' for Active; 'I' for Inactive)
REMARK    1  A    between atoms: C4_5  and  C6_7 
ROOT
ATOM      1  C1  <0> d           2.397   0.021  -0.021  0.00  0.00    -0.079 A 
ATOM      2  C2  <0> d           2.332   1.408  -0.013  0.00  0.00    -0.066 A 
ATOM      3  C3  <0> d           1.096   2.029   0.003  0.00  0.00     0.003 A 
ATOM      4  N1  <0> d          -0.016   1.324   0.009  0.00  0.00    -0.257 NA
ATOM      5  C4  <0> d           0.002  -0.004   0.002  0.00  0.00     0.111 A 
ATOM      6  C5  <0> d           1.213  -0.696  -0.013  0.00  0.00    -0.051 A 
ATOM      7  H1  <0> d           3.350  -0.487  -0.033  0.00  0.00     0.083 H 
ATOM      8  H2  <0> d           3.238   1.996  -0.018  0.00  0.00     0.085 H 
ATOM      9  H3  <0> d           1.043   3.108   0.009  0.00  0.00     0.114 H 
ATOM     10  H4  <0> d           1.227  -1.776  -0.019  0.00  0.00     0.087 H 
ENDROOT
BRANCH   5  11
ATOM     11  C6  <0> d          -1.272  -0.755   0.010  0.00  0.00     0.221 A 
ATOM     12  O1  <0> d          -2.511  -0.226   0.029  0.00  0.00    -0.280 OA
ATOM     13  C7  <0> d          -3.366  -1.263   0.026  0.00  0.00     0.127 A 
ATOM     14  N3  <0> d          -2.657  -2.358   0.014  0.00  0.00    -0.135 NA
ATOM     15  H5  <0> d          -4.444  -1.201   0.036  0.00  0.00     0.158 H 
ATOM     16  N2  <0> d          -1.405  -2.060   0.004  0.00  0.00    -0.120 NA
ENDBRANCH   5  11
TORSDOF 1
