REMARK  1 active torsions:
REMARK  status: ('A' for Active; 'I' for Inactive)
REMARK    1  A    between atoms: C1_1  and  C2_2 
ROOT
ATOM      1  C2  <0> d          -0.711   3.265   0.025  0.00  0.00     0.091 A 
ATOM      2  C3  <0> d          -1.112   1.809   0.017  0.00  0.00    -0.077 A 
ATOM      3  C4  <0> d          -0.013   1.076   0.008  0.00  0.00    -0.074 A 
ATOM      4  C5  <0> d           1.192   1.927   0.001  0.00  0.00    -0.028 A 
ATOM      5  C6  <0> d           0.799   3.267   0.011  0.00  0.00    -0.022 A 
ATOM      6  C7  <0> d           1.739   4.270   0.008  0.00  0.00    -0.074 A 
ATOM      7  C8  <0> d           3.087   3.953  -0.005  0.00  0.00    -0.082 A 
ATOM      8  C9  <0> d           3.490   2.630  -0.015  0.00  0.00    -0.082 A 
ATOM      9  C10 <0> d           2.554   1.617  -0.013  0.00  0.00    -0.072 A 
ATOM     10  C11 <0> d          -1.232   3.940  -1.175  0.00  0.00     0.078 C 
ATOM     11  N1  <0> d          -1.634   4.461  -2.101  0.00  0.00    -0.196 NA
ATOM     12  H4  <0> d          -2.124   1.431   0.020  0.00  0.00     0.080 H 
ATOM     13  H5  <0> d           0.002  -0.004   0.002  0.00  0.00     0.084 H 
ATOM     14  H6  <0> d           1.427   5.304   0.016  0.00  0.00     0.084 H 
ATOM     15  H7  <0> d           3.826   4.741  -0.008  0.00  0.00     0.083 H 
ATOM     16  H8  <0> d           4.542   2.389  -0.025  0.00  0.00     0.083 H 
ATOM     17  H9  <0> d           2.873   0.585  -0.021  0.00  0.00     0.084 H 
ENDROOT
BRANCH   1  18
ATOM     18  C1  <0> d          -1.229   3.955   1.289  0.00  0.00    -0.050 C 
ATOM     19  H1  <0> d          -0.874   4.985   1.313  0.00  0.00     0.030 H 
ATOM     20  H2  <0> d          -2.319   3.946   1.286  0.00  0.00     0.030 H 
ATOM     21  H3  <0> d          -0.864   3.424   2.168  0.00  0.00     0.030 H 
ENDBRANCH   1  18
TORSDOF 1
