REMARK  0 active torsions:
REMARK  status: ('A' for Active; 'I' for Inactive)
ROOT
ATOM      1  C1  <0> d          -2.098   0.735  -1.277  0.00  0.00    -0.038 C 
ATOM      2  C2  <0> d          -2.687   0.463   0.077  0.00  0.00    -0.103 C 
ATOM      3  C3  <0> d          -2.150   0.851   1.195  0.00  0.00    -0.079 C 
ATOM      4  C4  <0> d          -0.852   1.642   1.194  0.00  0.00     0.065 C 
ATOM      5  H1  <0> d          -0.326   1.621   2.149  0.00  0.00     0.090 H 
ATOM      6  C5  <0> d          -0.013   1.086   0.008  0.00  0.00    -0.025 C 
ATOM      7  C6  <0> d          -0.875   1.656  -1.157  0.00  0.00     0.036 C 
ATOM      8  H2  <0> d          -0.320   1.736  -2.092  0.00  0.00     0.056 H 
ATOM      9  C7  <0> d          -1.319   2.999  -0.608  0.00  0.00     0.264 C 
ATOM     10  O1  <0> d          -1.699   3.933  -1.273  0.00  0.00    -0.265 OA
ATOM     11  O2  <0> d          -1.222   2.988   0.733  0.00  0.00    -0.312 OA
ATOM     12  H3  <0> d          -2.848   1.214  -1.906  0.00  0.00     0.040 H 
ATOM     13  H4  <0> d          -1.795  -0.207  -1.733  0.00  0.00     0.040 H 
ATOM     14  H5  <0> d          -3.614  -0.089   0.124  0.00  0.00     0.076 H 
ATOM     15  H6  <0> d          -2.628   0.610   2.132  0.00  0.00     0.080 H 
ATOM     16  H7  <0> d           0.002  -0.004   0.002  0.00  0.00     0.038 H 
ATOM     17  H8  <0> d           0.996   1.498   0.001  0.00  0.00     0.038 H 
ENDROOT
TORSDOF 0
