REMARK  3 active torsions:
REMARK  status: ('A' for Active; 'I' for Inactive)
REMARK    1  A    between atoms: C3_3  and  C5_6 
REMARK    2  A    between atoms: C5_6  and  C6_8 
REMARK    3  A    between atoms: C6_8  and  C7_9 
ROOT
ATOM      1  C7  <0> d          -0.019   1.526   0.010  0.00  0.00     0.021 C 
ATOM      2  C8  <0> d          -0.708   2.001   1.222  0.00  0.00     0.059 C 
ATOM      3  N1  <0> d          -1.239   2.367   2.156  0.00  0.00    -0.197 NA
ATOM      4  H6  <0> d           1.004   1.903   0.003  0.00  0.00     0.055 H 
ATOM      5  H7  <0> d          -0.546   1.887  -0.873  0.00  0.00     0.055 H 
ENDROOT
BRANCH   1   6
ATOM      6  C6  <0> d           0.002  -0.004   0.002  0.00  0.00     0.008 C 
ATOM      7  H4  <0> d           0.486  -0.335   0.812  0.00  0.00     0.046 H 
ATOM      8  H5  <0> d          -1.020  -0.381   0.010  0.00  0.00     0.046 H 
BRANCH   6   9
ATOM      9  C5  <0> d           0.707  -0.490  -1.238  0.00  0.00     0.183 C 
ATOM     10  O2  <0> d           1.151   0.310  -2.037  0.00  0.00    -0.290 OA
BRANCH   9  11
ATOM     11  C3  <0> d           0.853  -1.876  -1.470  0.00  0.00     0.120 A 
ATOM     12  C2  <0> d           1.474  -2.458  -2.558  0.00  0.00    -0.045 A 
ATOM     13  C1  <0> d           1.384  -3.844  -2.373  0.00  0.00    -0.059 A 
ATOM     14  H2  <0> d           1.937  -1.946  -3.388  0.00  0.00     0.088 H 
ATOM     15  C4  <0> d           0.728  -4.052  -1.208  0.00  0.00     0.019 A 
ATOM     16  H1  <0> d           1.766  -4.605  -3.037  0.00  0.00     0.086 H 
ATOM     17  O1  <0> d           0.416  -2.869  -0.666  0.00  0.00    -0.319 OA
ATOM     18  H3  <0> d           0.497  -5.017  -0.782  0.00  0.00     0.123 H 
ENDBRANCH   9  11
ENDBRANCH   6   9
ENDBRANCH   1   6
TORSDOF 3
