REMARK  3 active torsions:
REMARK  status: ('A' for Active; 'I' for Inactive)
REMARK    1  A    between atoms: C1_1  and  C2_2 
REMARK    2  A    between atoms: C2_2  and  C3_4 
REMARK    3  A    between atoms: C3_4  and  C7_10 
ROOT
ATOM      1  C3  <0> d           0.002  -0.004   0.002  0.00  0.00     0.059 C 
ATOM      2  C4  <0> d           0.713  -0.501  -1.261  0.00  0.00     0.037 C 
ATOM      3  O2  <0> d          -0.064  -0.128  -2.406  0.00  0.00    -0.366 OA
ATOM      4  C5  <0> d          -1.401  -0.635  -2.387  0.00  0.00     0.103 C 
ATOM      5  O3  <0> d          -2.073  -0.162  -1.218  0.00  0.00    -0.366 OA
ATOM      6  C6  <0> d          -1.435  -0.537   0.006  0.00  0.00     0.037 C 
ATOM      7  H4  <0> d           1.703  -0.048  -1.325  0.00  0.00     0.076 H 
ATOM      8  H5  <0> d           0.809  -1.586  -1.223  0.00  0.00     0.076 H 
ATOM      9  H6  <0> d          -1.376  -1.724  -2.376  0.00  0.00     0.117 H 
ATOM     10  H7  <0> d          -1.932  -0.292  -3.275  0.00  0.00     0.117 H 
ATOM     11  H8  <0> d          -1.421  -1.624   0.092  0.00  0.00     0.076 H 
ATOM     12  H9  <0> d          -1.980  -0.110   0.848  0.00  0.00     0.076 H 
ENDROOT
BRANCH   1  13
ATOM     13  C2  <0> d           0.731  -0.506   1.222  0.00  0.00     0.135 C 
ATOM     14  O1  <0> d           0.160  -1.213   2.018  0.00  0.00    -0.297 OA
BRANCH  13  15
ATOM     15  C1  <0> d           2.171  -0.125   1.450  0.00  0.00    -0.020 C 
ATOM     16  H1  <0> d           2.483   0.459   0.701  0.00  0.00     0.037 H 
ATOM     17  H2  <0> d           2.260   0.414   2.392  0.00  0.00     0.037 H 
ATOM     18  H3  <0> d           2.783  -1.026   1.487  0.00  0.00     0.037 H 
ENDBRANCH  13  15
ENDBRANCH   1  13
BRANCH   1  19
ATOM     19  C7  <0> d          -0.019   1.526   0.010  0.00  0.00    -0.059 C 
ATOM     20  H10 <0> d           1.004   1.903   0.003  0.00  0.00     0.029 H 
ATOM     21  H11 <0> d          -0.546   1.887  -0.873  0.00  0.00     0.029 H 
ATOM     22  H12 <0> d          -0.529   1.877   0.907  0.00  0.00     0.029 H 
ENDBRANCH   1  19
TORSDOF 3
