REMARK  2 active torsions:
REMARK  status: ('A' for Active; 'I' for Inactive)
REMARK    1  A    between atoms: C2_2  and  N2_11 
REMARK    2  A    between atoms: C3_3  and  C6_8 
ROOT
ATOM      1  C1  <0> d          -0.083   1.278  -0.001  0.00  0.00     0.009 A 
ATOM      2  C2  <0> d           1.042   2.082  -0.017  0.00  0.00     0.049 A 
ATOM      3  C3  <0> d           2.359   1.430  -0.021  0.00  0.00     0.082 A 
ATOM      4  C4  <0> d           2.416   0.050  -0.010  0.00  0.00    -0.001 A 
ATOM      5  N1  <0> d           1.287  -0.680   0.004  0.00  0.00    -0.333 N 
ATOM      6  C5  <0> d           0.070  -0.112   0.009  0.00  0.00     0.247 A 
ATOM      7  O1  <0> d          -0.921  -0.824   0.023  0.00  0.00    -0.268 OA
ATOM      8  H1  <0> d          -1.069   1.718   0.007  0.00  0.00     0.095 H 
ATOM      9  H2  <0> d           3.375  -0.446  -0.013  0.00  0.00     0.113 H 
ATOM     10  H5  <0> d           1.354  -1.647   0.012  0.00  0.00     0.168 HD
ENDROOT
BRANCH   2  11
ATOM     11  N2  <0> d           0.931   3.457  -0.028  0.00  0.00    -0.398 N 
ATOM     12  H3  <0> d           0.058   3.872  -0.104  0.00  0.00     0.156 HD
ATOM     13  H4  <0> d           1.726   4.008   0.040  0.00  0.00     0.156 HD
ENDBRANCH   2  11
BRANCH   3  14
ATOM     14  C6  <0> d           3.590   2.230  -0.038  0.00  0.00     0.213 C 
ATOM     15  O2  <0> d           4.677   1.678  -0.147  0.00  0.00    -0.644 OA
ATOM     16  O3  <0> d           3.530   3.449   0.057  0.00  0.00    -0.644 OA
ENDBRANCH   3  14
TORSDOF 2
