REMARK  6 active torsions:
REMARK  status: ('A' for Active; 'I' for Inactive)
REMARK    1  A    between atoms: C1_1  and  C2_2 
REMARK    2  A    between atoms: C2_2  and  C3_3 
REMARK    3  A    between atoms: C3_3  and  O2_5 
REMARK    4  A    between atoms: O2_5  and  C4_6 
REMARK    5  A    between atoms: C4_6  and  C5_7 
REMARK    6  A    between atoms: C4_6  and  C6_8 
ROOT
ATOM      1  O2  <0> d           1.139   1.891   0.001  0.00  0.00    -0.317 OA
ENDROOT
BRANCH   1   2
ATOM      2  C3  <0> d          -0.014   1.204   0.009  0.00  0.00     0.258 C 
ATOM      3  O1  <0> d           0.002  -0.004   0.002  0.00  0.00    -0.265 OA
BRANCH   2   4
ATOM      4  C2  <0> d          -1.329   1.940   0.019  0.00  0.00     0.013 C 
ATOM      5  H4  <0> d          -1.391   2.561   0.913  0.00  0.00     0.047 H 
ATOM      6  H5  <0> d          -1.400   2.570  -0.867  0.00  0.00     0.047 H 
BRANCH   4   7
ATOM      7  C1  <0> d          -2.479   0.930   0.019  0.00  0.00    -0.068 C 
ATOM      8  H1  <0> d          -3.430   1.462   0.026  0.00  0.00     0.028 H 
ATOM      9  H2  <0> d          -2.417   0.309  -0.875  0.00  0.00     0.028 H 
ATOM     10  H3  <0> d          -2.408   0.299   0.905  0.00  0.00     0.028 H 
ENDBRANCH   4   7
ENDBRANCH   2   4
ENDBRANCH   1   2
BRANCH   1  11
ATOM     11  C4  <0> d           2.367   1.117  -0.015  0.00  0.00     0.041 C 
ATOM     12  H6  <0> d           2.205   0.167   0.496  0.00  0.00     0.083 H 
BRANCH  11  13
ATOM     13  C5  <0> d           2.785   0.853  -1.462  0.00  0.00    -0.052 C 
ATOM     14  H7  <0> d           2.947   1.802  -1.973  0.00  0.00     0.030 H 
ATOM     15  H8  <0> d           3.707   0.272  -1.474  0.00  0.00     0.030 H 
ATOM     16  H9  <0> d           1.998   0.296  -1.972  0.00  0.00     0.030 H 
ENDBRANCH  11  13
BRANCH  11  17
ATOM     17  C6  <0> d           3.472   1.898   0.700  0.00  0.00    -0.052 C 
ATOM     18  H10 <0> d           3.174   2.086   1.732  0.00  0.00     0.030 H 
ATOM     19  H11 <0> d           4.394   1.317   0.689  0.00  0.00     0.030 H 
ATOM     20  H12 <0> d           3.634   2.847   0.190  0.00  0.00     0.030 H 
ENDBRANCH  11  17
ENDBRANCH   1  11
TORSDOF 6
