REMARK  3 active torsions:
REMARK  status: ('A' for Active; 'I' for Inactive)
REMARK    1  A    between atoms: C1_1  and  C2_2 
REMARK    2  A    between atoms: C2_2  and  C3_3 
REMARK    3  A    between atoms: C3_3  and  C4_4 
ROOT
ATOM      1  C4  <0> d           0.763  -2.041   1.233  0.00  0.00    -0.037 C 
ATOM      2  H1  <0> d           1.180  -2.409   0.296  0.00  0.00     0.045 H 
ATOM      3  C5  <0> d           1.580  -2.575   2.432  0.00  0.00    -0.056 C 
ATOM      4  C6  <0> d           0.771  -3.836   2.816  0.00  0.00    -0.049 C 
ATOM      5  C7  <0> d          -0.626  -3.566   2.307  0.00  0.00    -0.106 C 
ATOM      6  C8  <0> d          -0.631  -2.587   1.440  0.00  0.00    -0.102 C 
ATOM      7  H9  <0> d           2.594  -2.837   2.130  0.00  0.00     0.034 H 
ATOM      8  H10 <0> d           1.591  -1.854   3.250  0.00  0.00     0.034 H 
ATOM      9  H11 <0> d           1.189  -4.718   2.329  0.00  0.00     0.038 H 
ATOM     10  H12 <0> d           0.762  -3.967   3.898  0.00  0.00     0.038 H 
ATOM     11  H13 <0> d          -1.505  -4.112   2.616  0.00  0.00     0.076 H 
ATOM     12  H14 <0> d          -1.513  -2.216   0.940  0.00  0.00     0.076 H 
ENDROOT
BRANCH   1  13
ATOM     13  C3  <0> d           0.742  -0.511   1.242  0.00  0.00    -0.059 C 
ATOM     14  H7  <0> d           1.765  -0.134   1.234  0.00  0.00     0.033 H 
ATOM     15  H8  <0> d           0.232  -0.159   2.138  0.00  0.00     0.033 H 
BRANCH  13  16
ATOM     16  C2  <0> d           0.002  -0.004   0.002  0.00  0.00    -0.068 C 
ATOM     17  H5  <0> d          -1.020  -0.381   0.010  0.00  0.00     0.032 H 
ATOM     18  H6  <0> d           0.512  -0.356  -0.895  0.00  0.00     0.032 H 
BRANCH  16  19
ATOM     19  C1  <0> d          -0.019   1.526   0.010  0.00  0.00    -0.077 C 
ATOM     20  H2  <0> d           1.004   1.903   0.003  0.00  0.00     0.027 H 
ATOM     21  H3  <0> d          -0.546   1.887  -0.873  0.00  0.00     0.027 H 
ATOM     22  H4  <0> d          -0.529   1.877   0.907  0.00  0.00     0.027 H 
ENDBRANCH  16  19
ENDBRANCH  13  16
ENDBRANCH   1  13
TORSDOF 3
