REMARK  5 active torsions:
REMARK  status: ('A' for Active; 'I' for Inactive)
REMARK    1  A    between atoms: C1_1  and  C2_2 
REMARK    2  A    between atoms: C2_2  and  C3_3 
REMARK    3  A    between atoms: C3_3  and  C4_5 
REMARK    4  A    between atoms: C3_3  and  O1_8 
REMARK    5  A    between atoms: C4_5  and  C6_7 
ROOT
ATOM      1  C3  <0> d          -0.729   1.579   1.267  0.00  0.00     0.056 C 
ATOM      2  H1  <0> d          -0.822   2.665   1.230  0.00  0.00     0.090 H 
ENDROOT
BRANCH   1   3
ATOM      3  C2  <0> d          -0.013   1.086   0.008  0.00  0.00    -0.041 C 
ATOM      4  H5  <0> d           0.002  -0.004   0.002  0.00  0.00     0.036 H 
ATOM      5  H6  <0> d           1.010   1.463   0.000  0.00  0.00     0.036 H 
BRANCH   3   6
ATOM      6  C1  <0> d          -0.753   1.593  -1.232  0.00  0.00    -0.074 C 
ATOM      7  H2  <0> d          -0.242   1.241  -2.128  0.00  0.00     0.027 H 
ATOM      8  H3  <0> d          -1.775   1.215  -1.224  0.00  0.00     0.027 H 
ATOM      9  H4  <0> d          -0.767   2.683  -1.226  0.00  0.00     0.027 H 
ENDBRANCH   3   6
ENDBRANCH   1   3
BRANCH   1  10
ATOM     10  C4  <0> d           0.067   1.185   2.485  0.00  0.00    -0.065 C 
ATOM     11  C5  <0> d           0.604   2.107   3.243  0.00  0.00    -0.117 C 
ATOM     12  H7  <0> d           0.477   3.151   2.996  0.00  0.00     0.067 H 
ATOM     13  H8  <0> d           1.174   1.825   4.116  0.00  0.00     0.067 H 
BRANCH  10  14
ATOM     14  C6  <0> d           0.244  -0.272   2.829  0.00  0.00    -0.053 C 
ATOM     15  H9  <0> d           1.142  -0.653   2.344  0.00  0.00     0.033 H 
ATOM     16  H10 <0> d           0.341  -0.380   3.910  0.00  0.00     0.033 H 
ATOM     17  H11 <0> d          -0.623  -0.835   2.484  0.00  0.00     0.033 H 
ENDBRANCH  10  14
ENDBRANCH   1  10
BRANCH   1  18
ATOM     18  O1  <0> d          -2.030   0.991   1.336  0.00  0.00    -0.391 OA
ATOM     19  H12 <0> d          -2.023   0.025   1.372  0.00  0.00     0.210 HD
ENDBRANCH   1  18
TORSDOF 5
