REMARK  3 active torsions:
REMARK  status: ('A' for Active; 'I' for Inactive)
REMARK    1  A    between atoms: C1_1  and  C2_2 
REMARK    2  A    between atoms: C2_2  and  C3_3 
REMARK    3  A    between atoms: C3_3  and  C4_5 
ROOT
ATOM      1  C4  <0> d          -0.789   1.611   1.242  0.00  0.00     0.004 C 
ATOM      2  C5  <0> d          -0.013   1.086   0.008  0.00  0.00    -0.055 C 
ATOM      3  C6  <0> d          -0.809   1.622  -1.200  0.00  0.00    -0.064 C 
ATOM      4  C7  <0> d          -2.243   1.875  -0.703  0.00  0.00    -0.064 C 
ATOM      5  C8  <0> d          -2.268   1.485   0.789  0.00  0.00    -0.055 C 
ATOM      6  H6  <0> d          -0.549   2.559   1.450  0.00  0.00     0.051 H 
ATOM      7  H7  <0> d           0.002  -0.004   0.002  0.00  0.00     0.034 H 
ATOM      8  H8  <0> d           1.003   1.480   0.000  0.00  0.00     0.034 H 
ATOM      9  H9  <0> d          -0.367   2.552  -1.555  0.00  0.00     0.033 H 
ATOM     10  H10 <0> d          -0.816   0.882  -2.000  0.00  0.00     0.033 H 
ATOM     11  H11 <0> d          -2.497   2.929  -0.818  0.00  0.00     0.033 H 
ATOM     12  H12 <0> d          -2.946   1.258  -1.263  0.00  0.00     0.033 H 
ATOM     13  H13 <0> d          -2.899   2.172   1.353  0.00  0.00     0.034 H 
ATOM     14  H14 <0> d          -2.620   0.460   0.909  0.00  0.00     0.034 H 
ENDROOT
BRANCH   1  15
ATOM     15  C3  <0> d          -0.520   0.748   2.448  0.00  0.00     0.130 C 
ATOM     16  O1  <0> d          -0.185  -0.403   2.305  0.00  0.00    -0.298 OA
BRANCH  15  17
ATOM     17  C2  <0> d          -0.671   1.323   3.833  0.00  0.00    -0.013 C 
ATOM     18  H4  <0> d          -0.045   2.094   3.944  0.00  0.00     0.043 H 
ATOM     19  H5  <0> d          -1.697   1.663   3.976  0.00  0.00     0.043 H 
BRANCH  17  20
ATOM     20  C1  <0> d          -0.342   0.246   4.870  0.00  0.00    -0.070 C 
ATOM     21  H1  <0> d          -0.451   0.662   5.872  0.00  0.00     0.028 H 
ATOM     22  H2  <0> d          -1.025  -0.595   4.749  0.00  0.00     0.028 H 
ATOM     23  H3  <0> d           0.683  -0.094   4.727  0.00  0.00     0.028 H 
ENDBRANCH  17  20
ENDBRANCH  15  17
ENDBRANCH   1  15
TORSDOF 3
