REMARK  5 active torsions:
REMARK  status: ('A' for Active; 'I' for Inactive)
REMARK    1  A    between atoms: C1_1  and  C2_2 
REMARK    2  A    between atoms: C1_1  and  C3_4 
REMARK    3  A    between atoms: C2_2  and  O1_3 
REMARK    4  A    between atoms: C4_6  and  N5_11 
REMARK    5  A    between atoms: C5_8  and  N4_10 
ROOT
ATOM      1  C3  <0> d          -0.718   1.572   1.248  0.00  0.00     0.166 A 
ATOM      2  N1  <0> d          -0.374   2.726   1.792  0.00  0.00    -0.046 NA
ATOM      3  C4  <0> d          -0.998   3.161   2.885  0.00  0.00     0.737 A 
ATOM      4  N2  <0> d          -1.961   2.428   3.434  0.00  0.00     0.129 NA
ATOM      5  C5  <0> d          -2.300   1.266   2.887  0.00  0.00     0.737 A 
ATOM      6  N3  <0> d          -1.675   0.840   1.791  0.00  0.00    -0.046 NA
ENDROOT
BRANCH   1   7
ATOM      7  C1  <0> d          -0.013   1.086   0.008  0.00  0.00     0.013 C 
ATOM      8  H1  <0> d           0.002  -0.004   0.002  0.00  0.00     0.047 H 
ATOM      9  H2  <0> d           1.010   1.463   0.000  0.00  0.00     0.047 H 
BRANCH   7  10
ATOM     10  C2  <0> d          -0.753   1.593  -1.232  0.00  0.00     0.023 C 
ATOM     11  H3  <0> d          -1.775   1.215  -1.224  0.00  0.00     0.074 H 
ATOM     12  H4  <0> d          -0.767   2.683  -1.226  0.00  0.00     0.074 H 
BRANCH  10  13
ATOM     13  O1  <0> d          -0.084   1.132  -2.407  0.00  0.00    -0.400 OA
ATOM     14  H5  <0> d          -0.499   1.416  -3.233  0.00  0.00     0.209 HD
ENDBRANCH  10  13
ENDBRANCH   7  10
ENDBRANCH   1   7
BRANCH   5  15
ATOM     15  N4  <0> d          -3.299   0.501   3.454  0.00  0.00    -0.230 N 
ATOM     16  H6  <0> d          -3.546  -0.348   3.054  0.00  0.00     0.174 HD
ATOM     17  H7  <0> d          -3.754   0.812   4.252  0.00  0.00     0.174 HD
ENDBRANCH   5  15
BRANCH   3  18
ATOM     18  N5  <0> d          -0.642   4.369   3.449  0.00  0.00    -0.230 N 
ATOM     19  H8  <0> d          -1.094   4.683   4.247  0.00  0.00     0.174 HD
ATOM     20  H9  <0> d           0.061   4.903   3.048  0.00  0.00     0.174 HD
ENDBRANCH   3  18
TORSDOF 5
