REMARK  4 active torsions:
REMARK  status: ('A' for Active; 'I' for Inactive)
REMARK    1  A    between atoms: C1_1  and  C2_2 
REMARK    2  A    between atoms: C6_7  and  C9_11 
REMARK    3  A    between atoms: C9_11  and  C10_12 
REMARK    4  A    between atoms: C10_12  and  O1_13 
ROOT
ATOM      1  C2  <0> d           0.002  -0.004   0.002  0.00  0.00    -0.058 C 
ATOM      2  H1  <0> d           0.927  -0.355  -0.455  0.00  0.00     0.039 H 
ATOM      3  C3  <0> d          -0.083  -0.503   1.459  0.00  0.00    -0.062 C 
ATOM      4  C4  <0> d           1.201  -0.444   2.142  0.00  0.00    -0.064 C 
ATOM      5  C5  <0> d           1.745   0.995   2.247  0.00  0.00    -0.062 C 
ATOM      6  C6  <0> d           2.374   1.367   0.932  0.00  0.00    -0.052 C 
ATOM      7  H2  <0> d           2.712   0.458   0.434  0.00  0.00     0.040 H 
ATOM      8  C7  <0> d           1.397   2.109   0.000  0.00  0.00    -0.061 C 
ATOM      9  C8  <0> d          -0.018   1.500   0.010  0.00  0.00    -0.062 C 
ATOM     10  H6  <0> d          -0.800   0.113   2.002  0.00  0.00     0.033 H 
ATOM     11  H7  <0> d          -0.436  -1.534   1.459  0.00  0.00     0.033 H 
ATOM     12  H8  <0> d           1.085  -0.852   3.146  0.00  0.00     0.033 H 
ATOM     13  H9  <0> d           1.920  -1.054   1.595  0.00  0.00     0.033 H 
ATOM     14  H10 <0> d           0.926   1.681   2.468  0.00  0.00     0.033 H 
ATOM     15  H11 <0> d           2.493   1.047   3.038  0.00  0.00     0.033 H 
ATOM     16  H12 <0> d           1.787   2.075  -1.017  0.00  0.00     0.033 H 
ATOM     17  H13 <0> d           1.334   3.151   0.315  0.00  0.00     0.033 H 
ATOM     18  H14 <0> d          -0.559   1.851  -0.869  0.00  0.00     0.033 H 
ATOM     19  H15 <0> d          -0.542   1.841   0.903  0.00  0.00     0.033 H 
ENDROOT
BRANCH   6  20
ATOM     20  C9  <0> d           3.584   2.264   1.198  0.00  0.00    -0.042 C 
ATOM     21  H16 <0> d           3.994   2.611   0.249  0.00  0.00     0.036 H 
ATOM     22  H17 <0> d           3.276   3.122   1.796  0.00  0.00     0.036 H 
BRANCH  20  23
ATOM     23  C10 <0> d           4.651   1.471   1.955  0.00  0.00     0.017 C 
ATOM     24  H18 <0> d           4.240   1.124   2.903  0.00  0.00     0.073 H 
ATOM     25  H19 <0> d           4.959   0.614   1.357  0.00  0.00     0.073 H 
BRANCH  23  26
ATOM     26  O1  <0> d           5.781   2.310   2.203  0.00  0.00    -0.401 OA
ATOM     27  H20 <0> d           6.498   1.871   2.681  0.00  0.00     0.209 HD
ENDBRANCH  23  26
ENDBRANCH  20  23
ENDBRANCH   6  20
BRANCH   1  28
ATOM     28  C1  <0> d          -1.195  -0.530  -0.792  0.00  0.00    -0.073 C 
ATOM     29  H3  <0> d          -1.141  -0.162  -1.817  0.00  0.00     0.028 H 
ATOM     30  H4  <0> d          -1.178  -1.620  -0.797  0.00  0.00     0.028 H 
ATOM     31  H5  <0> d          -2.119  -0.183  -0.330  0.00  0.00     0.028 H 
ENDBRANCH   1  28
TORSDOF 4
