REMARK  1 active torsions:
REMARK  status: ('A' for Active; 'I' for Inactive)
REMARK    1  A    between atoms: C2_2  and  C3_3 
ROOT
ATOM      1  C1  <0> d           0.018  -1.178  -0.004  0.00  0.00    -0.148 C 
ATOM      2  C2  <0> d           0.002  -0.004   0.002  0.00  0.00    -0.070 C 
ATOM      3  H1  <0> d           0.032  -2.228  -0.010  0.00  0.00     0.167 H 
ENDROOT
BRANCH   2   4
ATOM      4  C3  <0> d          -0.017   1.428   0.010  0.00  0.00     0.057 A 
ATOM      5  S1  <0> d           1.353   2.572   0.003  0.00  0.00    -0.093 SA
ATOM      6  C6  <0> d           0.415   4.090   0.020  0.00  0.00    -0.044 A 
ATOM      7  C5  <0> d          -0.864   3.635   0.030  0.00  0.00    -0.075 A 
ATOM      8  H4  <0> d           0.773   5.109   0.022  0.00  0.00     0.095 H 
ATOM      9  C4  <0> d          -1.094   2.278   0.019  0.00  0.00    -0.058 A 
ATOM     10  H3  <0> d          -1.692   4.330   0.041  0.00  0.00     0.084 H 
ATOM     11  H2  <0> d          -2.102   1.890   0.020  0.00  0.00     0.086 H 
ENDBRANCH   2   4
TORSDOF 1
