REMARK  4 active torsions:
REMARK  status: ('A' for Active; 'I' for Inactive)
REMARK    1  A    between atoms: C1_1  and  C2_2 
REMARK    2  A    between atoms: C4_4  and  C9_10 
REMARK    3  A    between atoms: C5_5  and  O1_9 
REMARK    4  A    between atoms: C7_7  and  C8_8 
ROOT
ATOM      1  C2  <0> d           2.396   0.030  -0.021  0.00  0.00    -0.055 A 
ATOM      2  C3  <0> d           2.380   1.413  -0.013  0.00  0.00    -0.068 A 
ATOM      3  C4  <0> d           1.177   2.091   0.002  0.00  0.00    -0.028 A 
ATOM      4  C5  <0> d          -0.017   1.383   0.010  0.00  0.00     0.072 A 
ATOM      5  C6  <0> d           0.002  -0.004   0.002  0.00  0.00    -0.044 A 
ATOM      6  C7  <0> d           1.208  -0.677  -0.013  0.00  0.00    -0.053 A 
ATOM      7  H4  <0> d           3.309   1.963  -0.018  0.00  0.00     0.085 H 
ATOM      8  H5  <0> d          -0.925  -0.557   0.008  0.00  0.00     0.088 H 
ENDROOT
BRANCH   1   9
ATOM      9  C1  <0> d           3.711  -0.707  -0.037  0.00  0.00    -0.051 C 
ATOM     10  H1  <0> d           4.018  -0.879  -1.069  0.00  0.00     0.033 H 
ATOM     11  H2  <0> d           4.468  -0.111   0.473  0.00  0.00     0.033 H 
ATOM     12  H3  <0> d           3.597  -1.664   0.473  0.00  0.00     0.033 H 
ENDBRANCH   1   9
BRANCH   6  13
ATOM     13  C8  <0> d           1.230  -2.184  -0.022  0.00  0.00    -0.051 C 
ATOM     14  H6  <0> d           1.225  -2.542  -1.052  0.00  0.00     0.033 H 
ATOM     15  H7  <0> d           2.129  -2.538   0.481  0.00  0.00     0.033 H 
ATOM     16  H8  <0> d           0.350  -2.563   0.498  0.00  0.00     0.033 H 
ENDBRANCH   6  13
BRANCH   3  17
ATOM     17  C9  <0> d           1.160   3.598   0.010  0.00  0.00    -0.049 C 
ATOM     18  H10 <0> d           1.165   3.956   1.039  0.00  0.00     0.033 H 
ATOM     19  H11 <0> d           2.041   3.973  -0.510  0.00  0.00     0.033 H 
ATOM     20  H12 <0> d           0.261   3.954  -0.494  0.00  0.00     0.033 H 
ENDBRANCH   3  17
BRANCH   4  21
ATOM     21  O1  <0> d          -1.202   2.047   0.019  0.00  0.00    -0.360 OA
ATOM     22  H9  <0> d          -1.541   2.235   0.905  0.00  0.00     0.217 HD
ENDBRANCH   4  21
TORSDOF 4
