REMARK  0 active torsions:
REMARK  status: ('A' for Active; 'I' for Inactive)
ROOT
ATOM      1  C1  <0> d           0.002  -0.004   0.002  0.00  0.00     0.022 C 
ATOM      2  C2  <0> d          -0.019   1.536   0.011  0.00  0.00     0.117 C 
ATOM      3  N1  <0> d           1.389   1.989  -0.001  0.00  0.00     0.089 N 
ATOM      4  C3  <0> d           2.176   0.880   0.598  0.00  0.00     0.171 C 
ATOM      5  C4  <0> d           1.500  -0.388   0.018  0.00  0.00     0.271 C 
ATOM      6  F1  <0> d           1.720  -1.491   0.850  0.00  0.00    -0.204 F 
ATOM      7  F2  <0> d           1.957  -0.648  -1.278  0.00  0.00    -0.204 F 
ATOM      8  H1  <0> d          -0.471  -0.410  -0.904  0.00  0.00     0.044 H 
ATOM      9  H2  <0> d          -0.492  -0.421   0.892  0.00  0.00     0.044 H 
ATOM     10  H3  <0> d          -0.551   1.900  -0.881  0.00  0.00     0.079 H 
ATOM     11  H4  <0> d          -0.534   1.890   0.915  0.00  0.00     0.079 H 
ATOM     12  H5  <0> d           1.702   2.187  -1.036  0.00  0.00     0.316 HD
ATOM     13  H6  <0> d           3.229   0.972   0.293  0.00  0.00     0.088 H 
ATOM     14  H7  <0> d           2.106   0.930   1.694  0.00  0.00     0.088 H 
ENDROOT
TORSDOF 0
