REMARK  2 active torsions:
REMARK  status: ('A' for Active; 'I' for Inactive)
REMARK    1  A    between atoms: C1_1  and  C2_2 
REMARK    2  A    between atoms: N1_6  and  C6_11 
ROOT
ATOM      1  C2  <0> d           1.152   2.054   0.002  0.00  0.00     0.015 A 
ATOM      2  C3  <0> d           2.334   1.401  -0.013  0.00  0.00     0.004 A 
ATOM      3  C4  <0> d           2.338  -0.014  -0.020  0.00  0.00     0.252 A 
ATOM      4  O1  <0> d           3.392  -0.625  -0.034  0.00  0.00    -0.268 OA
ATOM      5  N1  <0> d           1.166  -0.680  -0.013  0.00  0.00    -0.271 N 
ATOM      6  C5  <0> d           0.002  -0.004   0.002  0.00  0.00     0.329 A 
ATOM      7  O2  <0> d          -1.048  -0.618   0.008  0.00  0.00    -0.246 OA
ATOM      8  N2  <0> d          -0.016   1.341   0.009  0.00  0.00    -0.312 N 
ATOM      9  H1  <0> d          -0.865   1.810   0.016  0.00  0.00     0.170 HD
ATOM     10  H5  <0> d           3.263   1.952  -0.018  0.00  0.00     0.095 H 
ENDROOT
BRANCH   1  11
ATOM     11  C1  <0> d           1.119   3.561   0.010  0.00  0.00    -0.037 C 
ATOM     12  H2  <0> d           1.121   3.919   1.040  0.00  0.00     0.035 H 
ATOM     13  H3  <0> d           1.996   3.946  -0.510  0.00  0.00     0.035 H 
ATOM     14  H4  <0> d           0.217   3.907  -0.494  0.00  0.00     0.035 H 
ENDBRANCH   1  11
BRANCH   5  15
ATOM     15  C6  <0> d           1.159  -2.145  -0.020  0.00  0.00    -0.007 C 
ATOM     16  H6  <0> d           1.147  -2.503  -1.050  0.00  0.00     0.057 H 
ATOM     17  H7  <0> d           2.052  -2.515   0.483  0.00  0.00     0.057 H 
ATOM     18  H8  <0> d           0.272  -2.507   0.501  0.00  0.00     0.057 H 
ENDBRANCH   5  15
TORSDOF 2
