REMARK  3 active torsions:
REMARK  status: ('A' for Active; 'I' for Inactive)
REMARK    1  A    between atoms: C1_1  and  N1_2 
REMARK    2  A    between atoms: N1_2  and  C2_3 
REMARK    3  A    between atoms: C4_6  and  C6_9 
ROOT
ATOM      1  C2  <0> d          -0.841   2.911   1.440  0.00  0.00     0.721 A 
ATOM      2  N2  <0> d          -0.345   3.768   0.557  0.00  0.00    -0.074 NA
ATOM      3  C3  <0> d          -0.465   5.070   0.734  0.00  0.00     0.039 A 
ATOM      4  C4  <0> d          -1.117   5.542   1.881  0.00  0.00     0.076 A 
ATOM      5  C5  <0> d          -1.622   4.603   2.792  0.00  0.00     0.039 A 
ATOM      6  N3  <0> d          -1.465   3.318   2.538  0.00  0.00    -0.074 NA
ATOM      7  H5  <0> d          -0.062   5.761   0.009  0.00  0.00     0.117 H 
ATOM      8  H6  <0> d          -2.131   4.927   3.687  0.00  0.00     0.117 H 
ENDROOT
BRANCH   1   9
ATOM      9  N1  <0> d          -0.698   1.558   1.213  0.00  0.00    -0.227 N 
ATOM     10  H4  <0> d          -1.052   0.920   1.852  0.00  0.00     0.177 HD
BRANCH   9  11
ATOM     11  C1  <0> d          -0.013   1.086   0.008  0.00  0.00    -0.005 C 
ATOM     12  H1  <0> d           0.002  -0.004   0.002  0.00  0.00     0.057 H 
ATOM     13  H2  <0> d           1.010   1.463   0.000  0.00  0.00     0.057 H 
ATOM     14  H3  <0> d          -0.540   1.447  -0.875  0.00  0.00     0.057 H 
ENDBRANCH   9  11
ENDBRANCH   1   9
BRANCH   4  15
ATOM     15  C6  <0> d          -1.269   6.988   2.124  0.00  0.00     0.212 C 
ATOM     16  O1  <0> d          -1.837   7.380   3.124  0.00  0.00    -0.644 OA
ATOM     17  O2  <0> d          -0.777   7.875   1.237  0.00  0.00    -0.644 OA
ENDBRANCH   4  15
TORSDOF 3
