REMARK  2 active torsions:
REMARK  status: ('A' for Active; 'I' for Inactive)
REMARK    1  A    between atoms: C8_8  and  C9_11 
REMARK    2  A    between atoms: C9_11  and  O1_12 
ROOT
ATOM      1  C1  <0> d          -1.445   2.050  -3.441  0.00  0.00    -0.082 A 
ATOM      2  C2  <0> d          -2.527   2.779  -2.983  0.00  0.00    -0.081 A 
ATOM      3  C3  <0> d          -2.743   2.926  -1.630  0.00  0.00    -0.057 A 
ATOM      4  C4  <0> d          -1.871   2.339  -0.710  0.00  0.00     0.034 A 
ATOM      5  C5  <0> d          -0.790   1.609  -1.179  0.00  0.00    -0.030 A 
ATOM      6  C6  <0> d          -0.577   1.466  -2.536  0.00  0.00    -0.075 A 
ATOM      7  C7  <0> d          -0.013   1.086   0.008  0.00  0.00    -0.018 A 
ATOM      8  C8  <0> d          -0.780   1.605   1.235  0.00  0.00     0.034 A 
ATOM      9  H1  <0> d          -1.141   0.771   1.836  0.00  0.00     0.076 H 
ATOM     10  N1  <0> d          -1.909   2.365   0.685  0.00  0.00    -0.382 N 
ATOM     11  H2  <0> d          -1.278   1.936  -4.502  0.00  0.00     0.083 H 
ATOM     12  H3  <0> d          -3.205   3.236  -3.689  0.00  0.00     0.083 H 
ATOM     13  H4  <0> d          -3.590   3.497  -1.280  0.00  0.00     0.086 H 
ATOM     14  H5  <0> d           0.268   0.896  -2.892  0.00  0.00     0.084 H 
ATOM     15  H6  <0> d           0.002  -0.004   0.002  0.00  0.00     0.043 H 
ATOM     16  H7  <0> d           1.004   1.479   0.000  0.00  0.00     0.043 H 
ATOM     17  H8  <0> d          -2.583   2.819   1.214  0.00  0.00     0.160 HD
ENDROOT
BRANCH   8  18
ATOM     18  C9  <0> d           0.117   2.517   2.075  0.00  0.00     0.036 C 
ATOM     19  H9  <0> d           1.032   1.985   2.337  0.00  0.00     0.077 H 
ATOM     20  H10 <0> d           0.367   3.409   1.501  0.00  0.00     0.077 H 
BRANCH  18  21
ATOM     21  O1  <0> d          -0.573   2.895   3.268  0.00  0.00    -0.399 OA
ATOM     22  H11 <0> d          -0.062   3.475   3.850  0.00  0.00     0.209 HD
ENDBRANCH  18  21
ENDBRANCH   8  18
TORSDOF 2
