REMARK  5 active torsions:
REMARK  status: ('A' for Active; 'I' for Inactive)
REMARK    1  A    between atoms: C1_1  and  C2_2 
REMARK    2  A    between atoms: C2_2  and  C3_4 
REMARK    3  A    between atoms: C2_2  and  O2_12 
REMARK    4  A    between atoms: C3_4  and  C4_5 
REMARK    5  A    between atoms: C4_5  and  C5_6 
ROOT
ATOM      1  C4  <0> d          -0.753   1.593  -1.232  0.00  0.00    -0.039 C 
ATOM      2  H8  <0> d          -1.775   1.215  -1.224  0.00  0.00     0.036 H 
ATOM      3  H9  <0> d          -0.767   2.683  -1.226  0.00  0.00     0.036 H 
ENDROOT
BRANCH   1   4
ATOM      4  C3  <0> d          -0.013   1.086   0.008  0.00  0.00    -0.039 C 
ATOM      5  H6  <0> d           0.002  -0.004   0.002  0.00  0.00     0.036 H 
ATOM      6  H7  <0> d           1.010   1.463   0.000  0.00  0.00     0.036 H 
BRANCH   4   7
ATOM      7  C2  <0> d          -0.729   1.579   1.267  0.00  0.00     0.032 C 
ATOM      8  H1  <0> d          -1.776   1.277   1.232  0.00  0.00     0.082 H 
BRANCH   7   9
ATOM      9  C1  <0> d          -0.064   0.971   2.503  0.00  0.00    -0.052 C 
ATOM     10  H3  <0> d           0.983   1.274   2.539  0.00  0.00     0.030 H 
ATOM     11  H4  <0> d          -0.574   1.323   3.400  0.00  0.00     0.030 H 
ATOM     12  H5  <0> d          -0.126  -0.116   2.452  0.00  0.00     0.030 H 
ENDBRANCH   7   9
BRANCH   7  13
ATOM     13  O2  <0> d          -0.647   3.004   1.334  0.00  0.00    -0.396 OA
ATOM     14  H16 <0> d          -1.081   3.387   2.109  0.00  0.00     0.210 HD
ENDBRANCH   7  13
ENDBRANCH   4   7
ENDBRANCH   1   4
BRANCH   1  15
ATOM     15  C5  <0> d          -0.037   1.099  -2.490  0.00  0.00     0.038 C 
ATOM     16  H2  <0> d           1.021   1.360  -2.451  0.00  0.00     0.083 H 
ATOM     17  O1  <0> d          -0.200  -0.329  -2.635  0.00  0.00    -0.386 OA
ATOM     18  C8  <0> d           0.053  -0.601  -4.030  0.00  0.00     0.020 C 
ATOM     19  C7  <0> d          -0.632   0.557  -4.789  0.00  0.00    -0.043 C 
ATOM     20  H14 <0> d          -0.388  -1.556  -4.316  0.00  0.00     0.074 H 
ATOM     21  H15 <0> d           1.125  -0.604  -4.230  0.00  0.00     0.074 H 
ATOM     22  C6  <0> d          -0.692   1.701  -3.753  0.00  0.00    -0.039 C 
ATOM     23  H12 <0> d          -1.636   0.269  -5.099  0.00  0.00     0.036 H 
ATOM     24  H13 <0> d          -0.035   0.854  -5.652  0.00  0.00     0.036 H 
ATOM     25  H10 <0> d          -1.727   1.979  -3.551  0.00  0.00     0.036 H 
ATOM     26  H11 <0> d          -0.126   2.564  -4.103  0.00  0.00     0.036 H 
ENDBRANCH   1  15
TORSDOF 5
