REMARK  3 active torsions:
REMARK  status: ('A' for Active; 'I' for Inactive)
REMARK    1  A    between atoms: C1_1  and  C2_2 
REMARK    2  A    between atoms: C4_4  and  C5_8 
REMARK       I    between atoms: C5_8  and  N3_10 
REMARK    3  A    between atoms: N3_10  and  C6_11 
ROOT
ATOM      1  C2  <0> d           0.002  -0.004   0.002  0.00  0.00     0.026 A 
ATOM      2  C3  <0> d           0.008  -0.801  -1.092  0.00  0.00    -0.025 A 
ATOM      3  C4  <0> d           0.029  -2.126  -0.595  0.00  0.00     0.146 A 
ATOM      4  N1  <0> d           0.034  -2.043   0.720  0.00  0.00    -0.169 NA
ATOM      5  N2  <0> d           0.024  -0.811   1.085  0.00  0.00    -0.282 N 
ATOM      6  H1  <0> d           0.028  -0.504   2.005  0.00  0.00     0.189 HD
ATOM      7  H5  <0> d          -0.002  -0.491  -2.127  0.00  0.00     0.090 H 
ENDROOT
BRANCH   3   8
ATOM      8  C5  <0> d           0.042  -3.366  -1.398  0.00  0.00     0.271 C 
ATOM      9  O1  <0> d           0.035  -3.304  -2.612  0.00  0.00    -0.266 OA
ATOM     10  N3  <0> d           0.062  -4.565  -0.784  0.00  0.00    -0.360 N 
ATOM     11  H6  <0> d           0.068  -4.615   0.185  0.00  0.00     0.162 HD
BRANCH  10  12
ATOM     12  C6  <0> d           0.075  -5.795  -1.580  0.00  0.00    -0.018 C 
ATOM     13  H7  <0> d           0.090  -6.659  -0.915  0.00  0.00     0.056 H 
ATOM     14  H8  <0> d          -0.818  -5.833  -2.204  0.00  0.00     0.056 H 
ATOM     15  H9  <0> d           0.962  -5.809  -2.214  0.00  0.00     0.056 H 
ENDBRANCH  10  12
ENDBRANCH   3   8
BRANCH   1  16
ATOM     16  C1  <0> d          -0.018   1.503   0.010  0.00  0.00    -0.036 C 
ATOM     17  H2  <0> d           1.004   1.880   0.003  0.00  0.00     0.035 H 
ATOM     18  H3  <0> d          -0.545   1.864  -0.873  0.00  0.00     0.035 H 
ATOM     19  H4  <0> d          -0.529   1.854   0.907  0.00  0.00     0.035 H 
ENDBRANCH   1  16
TORSDOF 3
