REMARK  2 active torsions:
REMARK  status: ('A' for Active; 'I' for Inactive)
REMARK    1  A    between atoms: C1_1  and  C2_2 
REMARK    2  A    between atoms: C4_4  and  C8_9 
ROOT
ATOM      1  C2  <0> d           1.164   3.438   0.009  0.00  0.00    -0.058 A 
ATOM      2  C3  <0> d          -0.034   4.122   0.024  0.00  0.00    -0.060 A 
ATOM      3  C4  <0> d          -1.238   3.416   0.032  0.00  0.00     0.044 A 
ATOM      4  C5  <0> d          -1.223   2.020   0.019  0.00  0.00    -0.029 A 
ATOM      5  C6  <0> d          -0.016   1.347   0.009  0.00  0.00     0.117 A 
ATOM      6  C7  <0> d           1.175   2.055   0.002  0.00  0.00    -0.040 A 
ATOM      7  F1  <0> d           0.002  -0.004   0.002  0.00  0.00    -0.206 F 
ATOM      8  H4  <0> d          -0.040   5.202   0.029  0.00  0.00     0.086 H 
ATOM      9  H5  <0> d          -2.151   1.468   0.020  0.00  0.00     0.089 H 
ATOM     10  H6  <0> d           2.116   1.525  -0.010  0.00  0.00     0.089 H 
ENDROOT
BRANCH   1  11
ATOM     11  C1  <0> d           2.465   4.200   0.001  0.00  0.00    -0.051 C 
ATOM     12  H1  <0> d           2.768   4.389  -1.028  0.00  0.00     0.033 H 
ATOM     13  H2  <0> d           2.333   5.149   0.521  0.00  0.00     0.033 H 
ATOM     14  H3  <0> d           3.233   3.613   0.504  0.00  0.00     0.033 H 
ENDBRANCH   1  11
BRANCH   3  15
ATOM     15  C8  <0> d          -2.524   4.144   0.047  0.00  0.00     0.209 C 
ATOM     16  O1  <0> d          -2.535   5.358   0.053  0.00  0.00    -0.644 OA
ATOM     17  O2  <0> d          -3.685   3.459   0.054  0.00  0.00    -0.644 OA
ENDBRANCH   3  15
TORSDOF 2
