REMARK  2 active torsions:
REMARK  status: ('A' for Active; 'I' for Inactive)
REMARK    1  A    between atoms: C1_1  and  N1_2 
REMARK    2  A    between atoms: C2_3  and  C5_7 
ROOT
ATOM      1  N1  <0> d           3.453   0.829  -1.393  0.00  0.00    -0.278 N 
ATOM      2  C2  <0> d           2.108   0.797  -1.289  0.00  0.00     0.035 A 
ATOM      3  C3  <0> d           1.597   0.778  -2.542  0.00  0.00    -0.041 A 
ATOM      4  C4  <0> d           2.666   0.807  -3.443  0.00  0.00     0.024 A 
ATOM      5  N2  <0> d           3.779   0.834  -2.756  0.00  0.00    -0.185 NA
ATOM      6  H4  <0> d           0.549   0.747  -2.800  0.00  0.00     0.088 H 
ATOM      7  H5  <0> d           2.587   0.803  -4.520  0.00  0.00     0.117 H 
ENDROOT
BRANCH   2   8
ATOM      8  C5  <0> d           1.317   0.779  -0.006  0.00  0.00    -0.012 A 
ATOM      9  C7  <0> d           0.002  -0.004   0.002  0.00  0.00    -0.056 A 
ATOM     10  C6  <0> d          -0.019   1.526   0.010  0.00  0.00    -0.056 A 
ATOM     11  H9  <0> d          -0.273  -0.516   0.924  0.00  0.00     0.034 H 
ATOM     12  H10 <0> d          -0.291  -0.506  -0.920  0.00  0.00     0.034 H 
ATOM     13  H7  <0> d          -0.325   2.030  -0.906  0.00  0.00     0.034 H 
ATOM     14  H8  <0> d          -0.307   2.020   0.938  0.00  0.00     0.034 H 
ATOM     15  H6  <0> d           1.906   0.782   0.910  0.00  0.00     0.049 H 
ENDBRANCH   2   8
BRANCH   1  16
ATOM     16  C1  <0> d           4.404   0.853  -0.279  0.00  0.00     0.003 C 
ATOM     17  H1  <0> d           4.664  -0.169  -0.002  0.00  0.00     0.059 H 
ATOM     18  H2  <0> d           5.304   1.388  -0.581  0.00  0.00     0.059 H 
ATOM     19  H3  <0> d           3.950   1.357   0.574  0.00  0.00     0.059 H 
ENDBRANCH   1  16
TORSDOF 2
