REMARK  0 active torsions:
REMARK  status: ('A' for Active; 'I' for Inactive)
ROOT
ATOM      1  C1  <0> d          -0.019   1.523   0.010  0.00  0.00    -0.055 C 
ATOM      2  C2  <0> d           1.410   2.094  -0.000  0.00  0.00    -0.042 C 
ATOM      3  C3  <0> d           2.139   1.451   1.147  0.00  0.00    -0.046 C 
ATOM      4  C4  <0> d           2.768   1.931   2.189  0.00  0.00     0.005 C 
ATOM      5  N1  <0> d           3.121   0.953   3.064  0.00  0.00    -0.276 NA
ATOM      6  C5  <0> d           2.824  -0.238   2.651  0.00  0.00    -0.004 C 
ATOM      7  C6  <0> d           2.235  -0.070   1.278  0.00  0.00     0.059 C 
ATOM      8  H1  <0> d           2.875  -0.504   0.510  0.00  0.00     0.067 H 
ATOM      9  C7  <0> d           0.804  -0.546   1.170  0.00  0.00     0.140 C 
ATOM     10  O1  <0> d           0.326  -1.314   1.970  0.00  0.00    -0.297 OA
ATOM     11  C8  <0> d           0.002  -0.004   0.002  0.00  0.00    -0.008 C 
ATOM     12  H2  <0> d          -0.536   1.869   0.905  0.00  0.00     0.034 H 
ATOM     13  H3  <0> d          -0.553   1.878  -0.871  0.00  0.00     0.034 H 
ATOM     14  H4  <0> d           1.903   1.849  -0.941  0.00  0.00     0.039 H 
ATOM     15  H5  <0> d           1.380   3.175   0.136  0.00  0.00     0.039 H 
ATOM     16  H6  <0> d           2.981   2.979   2.337  0.00  0.00     0.115 H 
ATOM     17  H7  <0> d           2.969  -1.166   3.185  0.00  0.00     0.109 H 
ATOM     18  H8  <0> d          -1.020  -0.376   0.067  0.00  0.00     0.044 H 
ATOM     19  H9  <0> d           0.449  -0.351  -0.930  0.00  0.00     0.044 H 
ENDROOT
TORSDOF 0
