REMARK  2 active torsions:
REMARK  status: ('A' for Active; 'I' for Inactive)
REMARK    1  A    between atoms: C5_6  and  C6_7 
REMARK    2  A    between atoms: C6_7  and  O1_8 
ROOT
ATOM      1  C1  <0> d          -0.017   1.382   0.010  0.00  0.00    -0.055 A 
ATOM      2  C2  <0> d           1.181   2.072   0.002  0.00  0.00     0.003 A 
ATOM      3  N1  <0> d           2.332   1.429  -0.013  0.00  0.00    -0.270 NA
ATOM      4  C3  <0> d           2.390   0.111  -0.021  0.00  0.00     0.040 A 
ATOM      5  C4  <0> d           1.232  -0.648  -0.013  0.00  0.00     0.142 A 
ATOM      6  C5  <0> d           0.002  -0.004   0.002  0.00  0.00     0.007 A 
ATOM      7  F1  <0> d           1.299  -1.997  -0.021  0.00  0.00    -0.204 F 
ATOM      8  H1  <0> d          -0.955   1.915   0.026  0.00  0.00     0.086 H 
ATOM      9  H2  <0> d           1.174   3.152   0.008  0.00  0.00     0.114 H 
ATOM     10  H3  <0> d           3.351  -0.381  -0.033  0.00  0.00     0.119 H 
ENDROOT
BRANCH   6  11
ATOM     11  C6  <0> d          -1.282  -0.793   0.011  0.00  0.00     0.043 C 
ATOM     12  H4  <0> d          -1.331  -1.417  -0.882  0.00  0.00     0.081 H 
ATOM     13  H5  <0> d          -1.313  -1.426   0.897  0.00  0.00     0.081 H 
BRANCH  11  14
ATOM     14  O1  <0> d          -2.393   0.105   0.026  0.00  0.00    -0.396 OA
ATOM     15  H6  <0> d          -3.254  -0.335   0.033  0.00  0.00     0.209 HD
ENDBRANCH  11  14
ENDBRANCH   6  11
TORSDOF 2
