REMARK  2 active torsions:
REMARK  status: ('A' for Active; 'I' for Inactive)
REMARK    1  A    between atoms: C1_1  and  C2_2 
REMARK    2  A    between atoms: C2_2  and  C9_13 
ROOT
ATOM      1  C2  <0> d           0.002  -0.004   0.002  0.00  0.00     0.040 C 
ATOM      2  C3  <0> d           0.766  -0.604  -1.194  0.00  0.00     0.061 C 
ATOM      3  H1  <0> d           0.794   0.035  -2.077  0.00  0.00     0.086 H 
ATOM      4  C4  <0> d           1.998  -0.496  -0.300  0.00  0.00     0.031 C 
ATOM      5  H2  <0> d           2.466   0.486  -0.366  0.00  0.00     0.055 H 
ATOM      6  C5  <0> d           1.075  -0.601   0.890  0.00  0.00     0.144 C 
ATOM      7  O1  <0> d           1.155  -0.986   2.032  0.00  0.00    -0.297 OA
ATOM      8  C6  <0> d           3.019  -1.606  -0.401  0.00  0.00    -0.051 C 
ATOM      9  C7  <0> d           2.411  -2.952  -0.756  0.00  0.00    -0.044 C 
ATOM     10  C8  <0> d           1.395  -2.807  -1.886  0.00  0.00     0.020 C 
ATOM     11  O2  <0> d           0.340  -1.939  -1.474  0.00  0.00    -0.384 OA
ATOM     12  H6  <0> d           3.750  -1.340  -1.164  0.00  0.00     0.034 H 
ATOM     13  H7  <0> d           3.533  -1.696   0.556  0.00  0.00     0.034 H 
ATOM     14  H8  <0> d           3.203  -3.632  -1.071  0.00  0.00     0.036 H 
ATOM     15  H9  <0> d           1.914  -3.364   0.122  0.00  0.00     0.036 H 
ATOM     16  H10 <0> d           1.882  -2.380  -2.762  0.00  0.00     0.074 H 
ATOM     17  H11 <0> d           0.984  -3.786  -2.135  0.00  0.00     0.074 H 
ENDROOT
BRANCH   1  18
ATOM     18  C1  <0> d          -0.019   1.526   0.010  0.00  0.00    -0.060 C 
ATOM     19  H3  <0> d           1.004   1.903   0.003  0.00  0.00     0.029 H 
ATOM     20  H4  <0> d          -0.546   1.887  -0.873  0.00  0.00     0.029 H 
ATOM     21  H5  <0> d          -0.529   1.877   0.907  0.00  0.00     0.029 H 
ENDBRANCH   1  18
BRANCH   1  22
ATOM     22  C9  <0> d          -1.383  -0.618   0.217  0.00  0.00    -0.060 C 
ATOM     23  H12 <0> d          -2.002  -0.433  -0.661  0.00  0.00     0.029 H 
ATOM     24  H13 <0> d          -1.284  -1.692   0.372  0.00  0.00     0.029 H 
ATOM     25  H14 <0> d          -1.849  -0.165   1.092  0.00  0.00     0.029 H 
ENDBRANCH   1  22
TORSDOF 2
