REMARK  4 active torsions:
REMARK  status: ('A' for Active; 'I' for Inactive)
REMARK    1  A    between atoms: C1_1  and  C2_2 
REMARK    2  A    between atoms: C2_2  and  C3_3 
REMARK    3  A    between atoms: C5_6  and  C7_9 
REMARK    4  A    between atoms: C7_9  and  C8_10 
ROOT
ATOM      1  C3  <0> d          -1.412  -0.526   0.013  0.00  0.00     0.051 A 
ATOM      2  C4  <0> d          -1.831  -1.409  -0.966  0.00  0.00     0.026 A 
ATOM      3  N1  <0> d          -3.070  -1.867  -0.957  0.00  0.00    -0.262 NA
ATOM      4  C5  <0> d          -3.910  -1.480  -0.012  0.00  0.00     0.051 A 
ATOM      5  C6  <0> d          -3.491  -0.598   0.967  0.00  0.00     0.026 A 
ATOM      6  N2  <0> d          -2.250  -0.144   0.960  0.00  0.00    -0.262 NA
ATOM      7  H6  <0> d          -1.145  -1.724  -1.738  0.00  0.00     0.117 H 
ATOM      8  H7  <0> d          -4.177  -0.282   1.739  0.00  0.00     0.117 H 
ENDROOT
BRANCH   1   9
ATOM      9  C2  <0> d           0.002  -0.004   0.002  0.00  0.00    -0.027 C 
ATOM     10  H4  <0> d           0.512  -0.356  -0.895  0.00  0.00     0.041 H 
ATOM     11  H5  <0> d           0.529  -0.365   0.885  0.00  0.00     0.041 H 
BRANCH   9  12
ATOM     12  C1  <0> d          -0.019   1.526   0.010  0.00  0.00    -0.071 C 
ATOM     13  H1  <0> d           1.004   1.903   0.003  0.00  0.00     0.028 H 
ATOM     14  H2  <0> d          -0.546   1.887  -0.873  0.00  0.00     0.028 H 
ATOM     15  H3  <0> d          -0.529   1.877   0.907  0.00  0.00     0.028 H 
ENDBRANCH   9  12
ENDBRANCH   1   9
BRANCH   4  16
ATOM     16  C7  <0> d          -5.324  -2.002  -0.002  0.00  0.00    -0.027 C 
ATOM     17  H8  <0> d          -5.313  -3.077   0.175  0.00  0.00     0.041 H 
ATOM     18  H9  <0> d          -5.887  -1.509   0.790  0.00  0.00     0.041 H 
BRANCH  16  19
ATOM     19  C8  <0> d          -5.984  -1.713  -1.352  0.00  0.00    -0.071 C 
ATOM     20  H10 <0> d          -5.420  -2.206  -2.144  0.00  0.00     0.028 H 
ATOM     21  H11 <0> d          -7.006  -2.090  -1.344  0.00  0.00     0.028 H 
ATOM     22  H12 <0> d          -5.994  -0.638  -1.529  0.00  0.00     0.028 H 
ENDBRANCH  16  19
ENDBRANCH   4  16
TORSDOF 4
