REMARK  2 active torsions:
REMARK  status: ('A' for Active; 'I' for Inactive)
REMARK    1  A    between atoms: C2_2  and  C3_3 
REMARK    2  A    between atoms: C6_6  and  N1_10 
ROOT
ATOM      1  C1  <0> d           0.018  -1.178  -0.004  0.00  0.00    -0.149 C 
ATOM      2  C2  <0> d           0.002  -0.004   0.002  0.00  0.00    -0.078 C 
ATOM      3  H1  <0> d           0.032  -2.228  -0.010  0.00  0.00     0.166 H 
ENDROOT
BRANCH   2   4
ATOM      4  C3  <0> d          -0.017   1.428   0.010  0.00  0.00     0.018 A 
ATOM      5  C8  <0> d           1.181   2.143   0.002  0.00  0.00    -0.042 A 
ATOM      6  C7  <0> d           1.159   3.522   0.005  0.00  0.00     0.061 A 
ATOM      7  H4  <0> d           2.125   1.618  -0.010  0.00  0.00     0.088 H 
ATOM      8  C6  <0> d          -0.056   4.199   0.026  0.00  0.00     0.047 A 
ATOM      9 Cl1  <0> d           2.648   4.414  -0.012  0.00  0.00    -0.082 Cl
ATOM     10  C5  <0> d          -1.251   3.489   0.039  0.00  0.00    -0.055 A 
ATOM     11  C4  <0> d          -1.235   2.111   0.031  0.00  0.00    -0.063 A 
ATOM     12  H3  <0> d          -2.193   4.017   0.055  0.00  0.00     0.087 H 
ATOM     13  H2  <0> d          -2.164   1.559   0.041  0.00  0.00     0.085 H 
BRANCH   8  14
ATOM     14  N1  <0> d          -0.076   5.595   0.034  0.00  0.00    -0.398 N 
ATOM     15  H5  <0> d          -0.923   6.068   0.048  0.00  0.00     0.156 HD
ATOM     16  H6  <0> d           0.757   6.092   0.025  0.00  0.00     0.156 HD
ENDBRANCH   8  14
ENDBRANCH   2   4
TORSDOF 2
