REMARK  2 active torsions:
REMARK  status: ('A' for Active; 'I' for Inactive)
REMARK    1  A    between atoms: C8_10  and  C9_12 
REMARK    2  A    between atoms: C9_12  and  O1_13 
ROOT
ATOM      1  C1  <0> d           2.171   0.048   1.251  0.00  0.00    -0.058 C 
ATOM      2  C2  <0> d           0.737  -0.483   1.262  0.00  0.00    -0.058 C 
ATOM      3  C3  <0> d           0.002  -0.004   0.002  0.00  0.00    -0.033 C 
ATOM      4  H1  <0> d          -1.011  -0.404  -0.043  0.00  0.00     0.046 H 
ATOM      5  C4  <0> d           0.813  -0.453  -1.205  0.00  0.00    -0.102 C 
ATOM      6  C5  <0> d           2.061   0.010  -1.214  0.00  0.00    -0.102 C 
ATOM      7  C6  <0> d           2.400   0.884  -0.016  0.00  0.00    -0.038 C 
ATOM      8  H2  <0> d           3.432   1.231  -0.070  0.00  0.00     0.046 H 
ATOM      9  C7  <0> d           1.416   2.061  -0.000  0.00  0.00    -0.053 C 
ATOM     10  C8  <0> d          -0.019   1.530   0.011  0.00  0.00    -0.026 C 
ATOM     11  H3  <0> d          -0.529   1.881   0.907  0.00  0.00     0.044 H 
ATOM     12  H4  <0> d           2.869  -0.789   1.264  0.00  0.00     0.034 H 
ATOM     13  H5  <0> d           2.335   0.670   2.131  0.00  0.00     0.034 H 
ATOM     14  H6  <0> d           0.219  -0.114   2.147  0.00  0.00     0.034 H 
ATOM     15  H7  <0> d           0.753  -1.573   1.280  0.00  0.00     0.034 H 
ATOM     16  H8  <0> d           0.413  -1.087  -1.982  0.00  0.00     0.077 H 
ATOM     17  H9  <0> d           2.768  -0.215  -2.000  0.00  0.00     0.076 H 
ATOM     18  H10 <0> d           1.570   2.675  -0.888  0.00  0.00     0.034 H 
ATOM     19  H11 <0> d           1.587   2.665   0.891  0.00  0.00     0.034 H 
ENDROOT
BRANCH  10  20
ATOM     20  C9  <0> d          -0.759   2.036  -1.229  0.00  0.00     0.021 C 
ATOM     21  H12 <0> d          -0.201   1.760  -2.124  0.00  0.00     0.074 H 
ATOM     22  H13 <0> d          -1.752   1.588  -1.267  0.00  0.00     0.074 H 
BRANCH  20  23
ATOM     23  O1  <0> d          -0.881   3.459  -1.163  0.00  0.00    -0.400 OA
ATOM     24  H14 <0> d          -1.341   3.849  -1.918  0.00  0.00     0.209 HD
ENDBRANCH  20  23
ENDBRANCH  10  20
TORSDOF 2
