REMARK  4 active torsions:
REMARK  status: ('A' for Active; 'I' for Inactive)
REMARK    1  A    between atoms: C1_1  and  S1_2 
REMARK    2  A    between atoms: S1_2  and  C2_3 
REMARK    3  A    between atoms: C4_5  and  N4_10 
REMARK    4  A    between atoms: C5_7  and  N3_9 
ROOT
ATOM      1  C2  <0> d           1.155  -0.670  -0.013  0.00  0.00     0.115 A 
ATOM      2  C3  <0> d           2.350   0.044  -0.020  0.00  0.00    -0.004 A 
ATOM      3  C4  <0> d           2.291   1.434  -0.012  0.00  0.00     0.143 A 
ATOM      4  N1  <0> d           1.101   2.032   0.003  0.00  0.00    -0.046 NA
ATOM      5  C5  <0> d          -0.016   1.320   0.009  0.00  0.00     0.723 A 
ATOM      6  N2  <0> d           0.002  -0.004   0.002  0.00  0.00    -0.056 NA
ATOM      7  H4  <0> d           3.301  -0.468  -0.032  0.00  0.00     0.093 H 
ENDROOT
BRANCH   1   8
ATOM      8  S1  <0> d           1.168  -2.432  -0.023  0.00  0.00    -0.114 SA
BRANCH   8   9
ATOM      9  C1  <0> d          -0.612  -2.760  -0.008  0.00  0.00    -0.029 C 
ATOM     10  H1  <0> d          -1.054  -2.325   0.889  0.00  0.00     0.042 H 
ATOM     11  H2  <0> d          -1.070  -2.315  -0.891  0.00  0.00     0.042 H 
ATOM     12  H3  <0> d          -0.783  -3.836  -0.013  0.00  0.00     0.042 H 
ENDBRANCH   8   9
ENDBRANCH   1   8
BRANCH   5  13
ATOM     13  N3  <0> d          -1.234   1.977   0.019  0.00  0.00    -0.231 N 
ATOM     14  H5  <0> d          -2.059   1.468   0.020  0.00  0.00     0.174 HD
ATOM     15  H6  <0> d          -1.262   2.947   0.024  0.00  0.00     0.174 HD
ENDBRANCH   5  13
BRANCH   3  16
ATOM     16  N4  <0> d           3.455   2.187  -0.019  0.00  0.00    -0.383 N 
ATOM     17  H7  <0> d           4.318   1.745  -0.029  0.00  0.00     0.157 HD
ATOM     18  H8  <0> d           3.406   3.156  -0.013  0.00  0.00     0.157 HD
ENDBRANCH   3  16
TORSDOF 4
