REMARK  3 active torsions:
REMARK  status: ('A' for Active; 'I' for Inactive)
REMARK    1  A    between atoms: C1_1  and  C2_2 
REMARK    2  A    between atoms: C5_5  and  C10_10 
REMARK    3  A    between atoms: C6_6  and  C8_8 
ROOT
ATOM      1  C2  <0> d           0.002  -0.004   0.002  0.00  0.00    -0.061 A 
ATOM      2  C3  <0> d           0.006  -0.688  -1.201  0.00  0.00    -0.077 A 
ATOM      3  C4  <0> d           0.024  -2.071  -1.217  0.00  0.00    -0.076 A 
ATOM      4  C5  <0> d           0.039  -2.778  -0.032  0.00  0.00    -0.052 A 
ATOM      5  C6  <0> d           0.036  -2.094   1.184  0.00  0.00    -0.031 A 
ATOM      6  C7  <0> d           0.023  -0.699   1.194  0.00  0.00    -0.067 A 
ATOM      7  H4  <0> d          -0.006  -0.139  -2.131  0.00  0.00     0.084 H 
ATOM      8  H5  <0> d           0.027  -2.599  -2.159  0.00  0.00     0.084 H 
ATOM      9  H6  <0> d           0.025  -0.164   2.132  0.00  0.00     0.085 H 
ENDROOT
BRANCH   5  10
ATOM     10  C8  <0> d           0.051  -2.845   2.458  0.00  0.00    -0.082 C 
ATOM     11  C9  <0> d           0.048  -2.193   3.612  0.00  0.00    -0.120 C 
ATOM     12  H8  <0> d           0.059  -2.741   4.542  0.00  0.00     0.066 H 
ATOM     13  H9  <0> d           0.034  -1.113   3.622  0.00  0.00     0.066 H 
ATOM     14  H7  <0> d           0.066  -3.925   2.447  0.00  0.00     0.083 H 
ENDBRANCH   5  10
BRANCH   4  15
ATOM     15  C10 <0> d           0.059  -4.284  -0.051  0.00  0.00    -0.050 C 
ATOM     16  H10 <0> d           1.091  -4.634  -0.061  0.00  0.00     0.033 H 
ATOM     17  H11 <0> d          -0.446  -4.666   0.836  0.00  0.00     0.033 H 
ATOM     18  H12 <0> d          -0.455  -4.643  -0.944  0.00  0.00     0.033 H 
ENDBRANCH   4  15
BRANCH   1  19
ATOM     19  C1  <0> d          -0.018   1.503   0.010  0.00  0.00    -0.051 C 
ATOM     20  H1  <0> d           1.004   1.880   0.003  0.00  0.00     0.033 H 
ATOM     21  H2  <0> d          -0.545   1.864  -0.873  0.00  0.00     0.033 H 
ATOM     22  H3  <0> d          -0.529   1.854   0.907  0.00  0.00     0.033 H 
ENDBRANCH   1  19
TORSDOF 3
