REMARK  0 active torsions:
REMARK  status: ('A' for Active; 'I' for Inactive)
ROOT
ATOM      1  C1  <0> d          -1.697   2.296  -1.740  0.00  0.00    -0.117 C 
ATOM      2  C2  <0> d          -0.473   2.023  -1.359  0.00  0.00    -0.057 C 
ATOM      3  C3  <0> d           0.791   2.117  -2.189  0.00  0.00     0.043 C 
ATOM      4  O1  <0> d           1.883   1.667  -1.374  0.00  0.00    -0.356 OA
ATOM      5  C4  <0> d           1.505   1.887  -0.002  0.00  0.00     0.138 C 
ATOM      6  H1  <0> d           1.855   2.876   0.330  0.00  0.00     0.130 H 
ATOM      7  C5  <0> d          -0.019   1.542   0.011  0.00  0.00     0.019 C 
ATOM      8  H2  <0> d          -0.647   1.958   0.812  0.00  0.00     0.054 H 
ATOM      9  C6  <0> d           0.002  -0.004   0.002  0.00  0.00    -0.034 C 
ATOM     10  C7  <0> d           1.413  -0.373   0.502  0.00  0.00     0.023 C 
ATOM     11  O2  <0> d           2.085   0.856   0.820  0.00  0.00    -0.361 OA
ATOM     12  H3  <0> d          -1.889   2.637  -2.768  0.00  0.00     0.067 H 
ATOM     13  H4  <0> d          -2.531   2.184  -1.033  0.00  0.00     0.067 H 
ATOM     14  H5  <0> d           0.692   1.482  -3.082  0.00  0.00     0.081 H 
ATOM     15  H6  <0> d           0.950   3.161  -2.498  0.00  0.00     0.081 H 
ATOM     16  H7  <0> d          -0.783  -0.385   0.671  0.00  0.00     0.037 H 
ATOM     17  H8  <0> d          -0.179  -0.368  -1.020  0.00  0.00     0.037 H 
ATOM     18  H9  <0> d           1.330  -1.011   1.394  0.00  0.00     0.074 H 
ATOM     19  H10 <0> d           1.951  -0.916  -0.289  0.00  0.00     0.074 H 
ENDROOT
TORSDOF 0
