REMARK  5 active torsions:
REMARK  status: ('A' for Active; 'I' for Inactive)
REMARK    1  A    between atoms: C1_1  and  C2_2 
REMARK    2  A    between atoms: C2_2  and  C3_3 
REMARK    3  A    between atoms: C3_3  and  C4_4 
REMARK    4  A    between atoms: C6_6  and  O2_11 
REMARK    5  A    between atoms: C9_9  and  O1_10 
ROOT
ATOM      1  C4  <0> d          -0.006  -0.691  -1.203  0.00  0.00    -0.022 A 
ATOM      2  C5  <0> d           0.018  -2.072  -1.210  0.00  0.00    -0.042 A 
ATOM      3  C6  <0> d           0.040  -2.772  -0.013  0.00  0.00     0.066 A 
ATOM      4  C7  <0> d           0.042  -2.085   1.192  0.00  0.00    -0.048 A 
ATOM      5  C8  <0> d           0.023  -0.704   1.200  0.00  0.00    -0.048 A 
ATOM      6  C9  <0> d           0.002  -0.004   0.002  0.00  0.00     0.072 A 
ATOM      7  H8  <0> d           0.016  -2.607  -2.148  0.00  0.00     0.088 H 
ATOM      8  H9  <0> d           0.058  -2.630   2.124  0.00  0.00     0.087 H 
ATOM      9  H10 <0> d           0.024  -0.169   2.138  0.00  0.00     0.087 H 
ENDROOT
BRANCH   1  10
ATOM     10  C3  <0> d          -0.035   0.069  -2.503  0.00  0.00    -0.039 C 
ATOM     11  H6  <0> d          -0.471  -0.557  -3.281  0.00  0.00     0.040 H 
ATOM     12  H7  <0> d          -0.635   0.971  -2.384  0.00  0.00     0.040 H 
BRANCH  10  13
ATOM     13  C2  <0> d           1.392   0.455  -2.901  0.00  0.00    -0.065 C 
ATOM     14  H4  <0> d           1.829   1.081  -2.123  0.00  0.00     0.032 H 
ATOM     15  H5  <0> d           1.992  -0.447  -3.020  0.00  0.00     0.032 H 
BRANCH  13  16
ATOM     16  C1  <0> d           1.362   1.227  -4.221  0.00  0.00    -0.076 C 
ATOM     17  H1  <0> d           0.925   0.600  -4.999  0.00  0.00     0.027 H 
ATOM     18  H2  <0> d           0.762   2.129  -4.102  0.00  0.00     0.027 H 
ATOM     19  H3  <0> d           2.379   1.501  -4.504  0.00  0.00     0.027 H 
ENDBRANCH  13  16
ENDBRANCH  10  13
ENDBRANCH   1  10
BRANCH   6  20
ATOM     20  O1  <0> d          -0.016   1.356   0.009  0.00  0.00    -0.360 OA
ATOM     21  H11 <0> d           0.862   1.761   0.003  0.00  0.00     0.217 HD
ENDBRANCH   6  20
BRANCH   3  22
ATOM     22  O2  <0> d           0.058  -4.132  -0.021  0.00  0.00    -0.361 OA
ATOM     23  H12 <0> d          -0.820  -4.537  -0.015  0.00  0.00     0.217 HD
ENDBRANCH   3  22
TORSDOF 5
