REMARK  7 active torsions:
REMARK  status: ('A' for Active; 'I' for Inactive)
REMARK    1  A    between atoms: C1_1  and  C2_2 
REMARK    2  A    between atoms: C2_2  and  C3_3 
REMARK    3  A    between atoms: C2_2  and  C4_4 
REMARK    4  A    between atoms: C2_2  and  C5_5 
REMARK    5  A    between atoms: C5_5  and  C6_7 
REMARK    6  A    between atoms: C5_5  and  O2_9 
REMARK    7  A    between atoms: C6_7  and  O1_8 
ROOT
ATOM      1  C2  <0> d          -0.729   1.579   1.267  0.00  0.00    -0.023 C 
ENDROOT
BRANCH   1   2
ATOM      2  C1  <0> d          -0.750   3.109   1.275  0.00  0.00    -0.067 C 
ATOM      3  H2  <0> d          -1.277   3.470   0.392  0.00  0.00     0.028 H 
ATOM      4  H3  <0> d          -1.260   3.461   2.172  0.00  0.00     0.028 H 
ATOM      5  H4  <0> d           0.273   3.486   1.268  0.00  0.00     0.028 H 
ENDBRANCH   1   2
BRANCH   1   6
ATOM      6  C3  <0> d          -2.164   1.050   1.278  0.00  0.00    -0.067 C 
ATOM      7  H5  <0> d          -2.149  -0.040   1.272  0.00  0.00     0.028 H 
ATOM      8  H6  <0> d          -2.674   1.401   2.175  0.00  0.00     0.028 H 
ATOM      9  H7  <0> d          -2.691   1.411   0.395  0.00  0.00     0.028 H 
ENDBRANCH   1   6
BRANCH   1  10
ATOM     10  C4  <0> d           0.011   1.072   2.506  0.00  0.00    -0.067 C 
ATOM     11  H8  <0> d           1.034   1.450   2.499  0.00  0.00     0.028 H 
ATOM     12  H9  <0> d          -0.499   1.424   3.403  0.00  0.00     0.028 H 
ATOM     13  H10 <0> d           0.026  -0.018   2.500  0.00  0.00     0.028 H 
ENDBRANCH   1  10
BRANCH   1  14
ATOM     14  C5  <0> d          -0.013   1.086   0.008  0.00  0.00     0.062 C 
ATOM     15  H1  <0> d           0.002  -0.004   0.002  0.00  0.00     0.087 H 
BRANCH  14  16
ATOM     16  C6  <0> d           1.423   1.615  -0.003  0.00  0.00     0.041 C 
ATOM     17  H11 <0> d           1.408   2.702  -0.086  0.00  0.00     0.077 H 
ATOM     18  H12 <0> d           1.923   1.329   0.922  0.00  0.00     0.077 H 
BRANCH  16  19
ATOM     19  O1  <0> d           2.126   1.061  -1.116  0.00  0.00    -0.398 OA
ATOM     20  H13 <0> d           3.045   1.354  -1.186  0.00  0.00     0.209 HD
ENDBRANCH  16  19
ENDBRANCH  14  16
BRANCH  14  21
ATOM     21  O2  <0> d          -0.704   1.559  -1.150  0.00  0.00    -0.393 OA
ATOM     22  H14 <0> d          -0.756   2.523  -1.210  0.00  0.00     0.210 HD
ENDBRANCH  14  21
ENDBRANCH   1  14
TORSDOF 7
