REMARK  2 active torsions:
REMARK  status: ('A' for Active; 'I' for Inactive)
REMARK    1  A    between atoms: C1_1  and  C2_2 
REMARK    2  A    between atoms: C6_6  and  C9_10 
ROOT
ATOM      1  C2  <0> d           1.173   1.780   0.000  0.00  0.00    -0.038 A 
ATOM      2  C3  <0> d          -0.013   1.076   0.008  0.00  0.00    -0.038 A 
ATOM      3  C4  <0> d          -1.223   1.751   0.017  0.00  0.00     0.117 A 
ATOM      4  C5  <0> d          -1.250   3.137   0.031  0.00  0.00    -0.038 A 
ATOM      5  C6  <0> d          -0.071   3.852   0.023  0.00  0.00    -0.038 A 
ATOM      6  C7  <0> d           1.152   3.177   0.008  0.00  0.00     0.056 A 
ATOM      7  C8  <0> d           2.380   3.913   0.001  0.00  0.00     0.100 C 
ATOM      8  N1  <0> d           3.354   4.498  -0.005  0.00  0.00    -0.191 NA
ATOM      9  F1  <0> d          -2.382   1.056   0.019  0.00  0.00    -0.206 F 
ATOM     10  H4  <0> d           0.002  -0.004   0.002  0.00  0.00     0.089 H 
ATOM     11  H5  <0> d          -2.196   3.658   0.043  0.00  0.00     0.089 H 
ENDROOT
BRANCH   1  12
ATOM     12  C1  <0> d           2.488   1.044  -0.016  0.00  0.00    -0.050 C 
ATOM     13  H1  <0> d           2.795   0.872  -1.047  0.00  0.00     0.033 H 
ATOM     14  H2  <0> d           3.244   1.641   0.494  0.00  0.00     0.033 H 
ATOM     15  H3  <0> d           2.375   0.088   0.494  0.00  0.00     0.033 H 
ENDBRANCH   1  12
BRANCH   5  16
ATOM     16  C9  <0> d          -0.101   5.359   0.032  0.00  0.00    -0.050 C 
ATOM     17  H6  <0> d          -0.118   5.728  -0.993  0.00  0.00     0.033 H 
ATOM     18  H7  <0> d          -0.993   5.701   0.556  0.00  0.00     0.033 H 
ATOM     19  H8  <0> d           0.786   5.737   0.540  0.00  0.00     0.033 H 
ENDBRANCH   5  16
TORSDOF 2
