REMARK  4 active torsions:
REMARK  status: ('A' for Active; 'I' for Inactive)
REMARK    1  A    between atoms: C1_1  and  C2_2 
REMARK    2  A    between atoms: C2_2  and  C3_4 
REMARK    3  A    between atoms: C2_2  and  N2_7 
REMARK       I    between atoms: C3_4  and  N1_6 
REMARK       I    between atoms: N2_7  and  C4_8 
REMARK    4  A    between atoms: C4_8  and  C5_10 
ROOT
ATOM      1  C2  <0> d          -1.214   3.626   0.028  0.00  0.00     0.085 C 
ATOM      2  H1  <0> d          -0.375   3.997   0.615  0.00  0.00     0.086 H 
ENDROOT
BRANCH   1   3
ATOM      3  C1  <0> d          -1.103   4.145  -1.407  0.00  0.00    -0.049 C 
ATOM      4  H2  <0> d          -1.117   5.235  -1.401  0.00  0.00     0.030 H 
ATOM      5  H3  <0> d          -0.168   3.797  -1.848  0.00  0.00     0.030 H 
ATOM      6  H4  <0> d          -1.942   3.773  -1.995  0.00  0.00     0.030 H 
ENDBRANCH   1   3
BRANCH   1   7
ATOM      7  C3  <0> d          -2.506   4.107   0.637  0.00  0.00     0.237 C 
ATOM      8  O1  <0> d          -3.329   3.306   1.026  0.00  0.00    -0.271 OA
ATOM      9  N1  <0> d          -2.747   5.428   0.749  0.00  0.00    -0.368 N 
ATOM     10  H5  <0> d          -2.088   6.069   0.438  0.00  0.00     0.159 HD
ATOM     11  H6  <0> d          -3.578   5.738   1.141  0.00  0.00     0.159 HD
ENDBRANCH   1   7
BRANCH   1  12
ATOM     12  N2  <0> d          -1.195   2.161   0.019  0.00  0.00    -0.349 N 
ATOM     13  C4  <0> d          -0.018   1.503   0.010  0.00  0.00     0.214 C 
ATOM     14  O2  <0> d           1.024   2.123   0.004  0.00  0.00    -0.274 OA
ATOM     15  H7  <0> d          -2.028   1.664   0.021  0.00  0.00     0.163 HD
BRANCH  13  16
ATOM     16  C5  <0> d           0.002  -0.004   0.002  0.00  0.00    -0.003 C 
ATOM     17  H8  <0> d           1.034  -0.353  -0.010  0.00  0.00     0.040 H 
ATOM     18  H9  <0> d          -0.498  -0.379   0.895  0.00  0.00     0.040 H 
ATOM     19  H10 <0> d          -0.515  -0.370  -0.885  0.00  0.00     0.040 H 
ENDBRANCH  13  16
ENDBRANCH   1  12
TORSDOF 4
