REMARK  2 active torsions:
REMARK  status: ('A' for Active; 'I' for Inactive)
REMARK    1  A    between atoms: C1_1  and  C2_2 
REMARK    2  A    between atoms: C2_2  and  C9_11 
ROOT
ATOM      1  C2  <0> d           0.002  -0.004   0.002  0.00  0.00     0.049 C 
ATOM      2  C3  <0> d           1.190  -0.083  -0.984  0.00  0.00    -0.045 C 
ATOM      3  C4  <0> d           1.638   1.398  -1.181  0.00  0.00    -0.053 C 
ATOM      4  H1  <0> d           2.649   1.543  -1.561  0.00  0.00     0.040 H 
ATOM      5  C5  <0> d           0.484   2.049  -2.003  0.00  0.00    -0.061 C 
ATOM      6  C6  <0> d          -0.703   2.128  -1.017  0.00  0.00    -0.060 C 
ATOM      7  C7  <0> d          -0.155   1.517   0.309  0.00  0.00    -0.037 C 
ATOM      8  H2  <0> d          -0.699   1.765   1.220  0.00  0.00     0.042 H 
ATOM      9  C8  <0> d           1.342   1.982   0.246  0.00  0.00    -0.057 C 
ATOM     10  H6  <0> d           2.001  -0.672  -0.556  0.00  0.00     0.035 H 
ATOM     11  H7  <0> d           0.868  -0.513  -1.933  0.00  0.00     0.035 H 
ATOM     12  H8  <0> d           0.770   3.047  -2.334  0.00  0.00     0.033 H 
ATOM     13  H9  <0> d           0.229   1.425  -2.860  0.00  0.00     0.033 H 
ATOM     14  H10 <0> d          -1.544   1.541  -1.387  0.00  0.00     0.033 H 
ATOM     15  H11 <0> d          -1.001   3.165  -0.863  0.00  0.00     0.033 H 
ATOM     16  H12 <0> d           1.435   3.068   0.270  0.00  0.00     0.034 H 
ATOM     17  H13 <0> d           1.951   1.507   1.016  0.00  0.00     0.034 H 
ENDROOT
BRANCH   1  18
ATOM     18  C1  <0> d          -1.270  -0.551  -0.649  0.00  0.00    -0.059 C 
ATOM     19  H3  <0> d          -1.382  -0.121  -1.645  0.00  0.00     0.029 H 
ATOM     20  H4  <0> d          -1.200  -1.636  -0.728  0.00  0.00     0.029 H 
ATOM     21  H5  <0> d          -2.133  -0.286  -0.040  0.00  0.00     0.029 H 
ENDBRANCH   1  18
BRANCH   1  22
ATOM     22  C9  <0> d           0.314  -0.765   1.265  0.00  0.00     0.181 C 
ATOM     23  O1  <0> d           0.406  -0.178   2.317  0.00  0.00    -0.647 OA
ATOM     24  O2  <0> d           0.488  -2.095   1.221  0.00  0.00    -0.647 OA
ENDBRANCH   1  22
TORSDOF 2
