REMARK  8 active torsions:
REMARK  status: ('A' for Active; 'I' for Inactive)
REMARK    1  A    between atoms: C1_1  and  O1_2 
REMARK    2  A    between atoms: O1_2  and  C2_3 
REMARK    3  A    between atoms: C2_3  and  O2_4 
REMARK    4  A    between atoms: C2_3  and  O3_6 
REMARK    5  A    between atoms: C2_3  and  O4_8 
REMARK    6  A    between atoms: O2_4  and  C3_5 
REMARK    7  A    between atoms: O3_6  and  C4_7 
REMARK    8  A    between atoms: O4_8  and  C5_9 
ROOT
ATOM      1  C2  <0> d          -0.017   1.425   0.010  0.00  0.00     0.414 C 
ENDROOT
BRANCH   1   2
ATOM      2  O1  <0> d           0.002  -0.004   0.002  0.00  0.00    -0.314 OA
BRANCH   2   3
ATOM      3  C1  <0> d          -1.295  -0.603   0.011  0.00  0.00     0.012 C 
ATOM      4  H1  <0> d          -1.832  -0.294   0.908  0.00  0.00     0.066 H 
ATOM      5  H2  <0> d          -1.849  -0.284  -0.872  0.00  0.00     0.066 H 
ATOM      6  H3  <0> d          -1.194  -1.688   0.004  0.00  0.00     0.066 H 
ENDBRANCH   2   3
ENDBRANCH   1   2
BRANCH   1   7
ATOM      7  O2  <0> d           1.323   1.919  -0.000  0.00  0.00    -0.314 OA
BRANCH   7   8
ATOM      8  C3  <0> d           1.417   3.345   0.006  0.00  0.00     0.012 C 
ATOM      9  H4  <0> d           0.919   3.746  -0.877  0.00  0.00     0.066 H 
ATOM     10  H5  <0> d           0.936   3.737   0.903  0.00  0.00     0.066 H 
ATOM     11  H6  <0> d           2.466   3.641  -0.002  0.00  0.00     0.066 H 
ENDBRANCH   7   8
ENDBRANCH   1   7
BRANCH   1  12
ATOM     12  O3  <0> d          -0.708   1.898  -1.148  0.00  0.00    -0.314 OA
BRANCH  12  13
ATOM     13  C4  <0> d          -0.118   1.491  -2.384  0.00  0.00     0.012 C 
ATOM     14  H7  <0> d          -0.701   1.891  -3.214  0.00  0.00     0.066 H 
ATOM     15  H8  <0> d           0.902   1.870  -2.441  0.00  0.00     0.066 H 
ATOM     16  H9  <0> d          -0.105   0.403  -2.440  0.00  0.00     0.066 H 
ENDBRANCH  12  13
ENDBRANCH   1  12
BRANCH   1  17
ATOM     17  O4  <0> d          -0.686   1.886   1.186  0.00  0.00    -0.314 OA
BRANCH  17  18
ATOM     18  C5  <0> d          -0.072   1.466   2.406  0.00  0.00     0.012 C 
ATOM     19  H10 <0> d          -0.639   1.856   3.251  0.00  0.00     0.066 H 
ATOM     20  H11 <0> d          -0.059   0.377   2.450  0.00  0.00     0.066 H 
ATOM     21  H12 <0> d           0.949   1.844   2.448  0.00  0.00     0.066 H 
ENDBRANCH  17  18
ENDBRANCH   1  17
TORSDOF 8
