REMARK  4 active torsions:
REMARK  status: ('A' for Active; 'I' for Inactive)
REMARK    1  A    between atoms: C1_1  and  C2_2 
REMARK    2  A    between atoms: C2_2  and  O1_3 
REMARK    3  A    between atoms: O1_3  and  C3_4 
REMARK    4  A    between atoms: C3_4  and  N1_5 
ROOT
ATOM      1  C3  <0> d          -0.013   1.086   0.008  0.00  0.00     0.100 C 
ATOM      2  H6  <0> d           0.002  -0.004   0.002  0.00  0.00     0.110 H 
ATOM      3  H7  <0> d           1.010   1.463   0.000  0.00  0.00     0.110 H 
ENDROOT
BRANCH   1   4
ATOM      4  O1  <0> d          -0.704   1.559  -1.150  0.00  0.00    -0.371 OA
BRANCH   4   5
ATOM      5  C2  <0> d          -0.114   1.152  -2.386  0.00  0.00     0.018 C 
ATOM      6  H4  <0> d           0.907   1.531  -2.443  0.00  0.00     0.073 H 
ATOM      7  H5  <0> d          -0.101   0.064  -2.442  0.00  0.00     0.073 H 
BRANCH   5   8
ATOM      8  C1  <0> d          -0.932   1.713  -3.551  0.00  0.00    -0.056 C 
ATOM      9  H1  <0> d          -1.952   1.334  -3.493  0.00  0.00     0.030 H 
ATOM     10  H2  <0> d          -0.945   2.801  -3.495  0.00  0.00     0.030 H 
ATOM     11  H3  <0> d          -0.482   1.403  -4.494  0.00  0.00     0.030 H 
ENDBRANCH   5   8
ENDBRANCH   4   5
ENDBRANCH   1   4
BRANCH   1  12
ATOM     12  N1  <0> d          -0.698   1.558   1.213  0.00  0.00    -0.239 N 
ATOM     13  N3  <0> d          -0.333   1.301   2.545  0.00  0.00    -0.163 NA
ATOM     14  C5  <0> d          -1.209   1.910   3.301  0.00  0.00     0.107 A 
ATOM     15  N2  <0> d          -2.101   2.522   2.523  0.00  0.00    -0.234 NA
ATOM     16  H9  <0> d          -1.212   1.912   4.381  0.00  0.00     0.149 H 
ATOM     17  C4  <0> d          -1.806   2.319   1.265  0.00  0.00     0.086 A 
ATOM     18  H8  <0> d          -2.355   2.697   0.415  0.00  0.00     0.146 H 
ENDBRANCH   1  12
TORSDOF 4
