REMARK  4 active torsions:
REMARK  status: ('A' for Active; 'I' for Inactive)
REMARK    1  A    between atoms: C1_1  and  C2_2 
REMARK    2  A    between atoms: C2_2  and  C3_4 
REMARK    3  A    between atoms: C2_2  and  O1_9 
REMARK    4  A    between atoms: C3_4  and  C4_5 
ROOT
ATOM      1  C2  <0> d          -0.729   1.579   1.267  0.00  0.00     0.040 C 
ATOM      2  H1  <0> d          -0.822   2.665   1.230  0.00  0.00     0.082 H 
ENDROOT
BRANCH   1   3
ATOM      3  C1  <0> d           0.079   1.179   2.503  0.00  0.00    -0.052 C 
ATOM      4  H2  <0> d           1.071   1.627   2.450  0.00  0.00     0.030 H 
ATOM      5  H3  <0> d          -0.432   1.530   3.400  0.00  0.00     0.030 H 
ATOM      6  H4  <0> d           0.172   0.093   2.540  0.00  0.00     0.030 H 
ENDBRANCH   1   3
BRANCH   1   7
ATOM      7  C3  <0> d          -0.013   1.086   0.008  0.00  0.00     0.049 C 
ATOM      8  H5  <0> d           0.002  -0.004   0.002  0.00  0.00     0.050 H 
ATOM      9  H6  <0> d           1.010   1.463   0.000  0.00  0.00     0.050 H 
BRANCH   7  10
ATOM     10  C4  <0> d          -0.753   1.593  -1.232  0.00  0.00     0.390 C 
ATOM     11  F1  <0> d          -0.772   2.991  -1.224  0.00  0.00    -0.171 F 
ATOM     12  F2  <0> d          -0.098   1.141  -2.382  0.00  0.00    -0.171 F 
ATOM     13  F3  <0> d          -2.065   1.108  -1.222  0.00  0.00    -0.171 F 
ENDBRANCH   7  10
ENDBRANCH   1   7
BRANCH   1  14
ATOM     14  O1  <0> d          -2.030   0.991   1.336  0.00  0.00    -0.396 OA
ATOM     15  H7  <0> d          -2.023   0.025   1.372  0.00  0.00     0.210 HD
ENDBRANCH   1  14
TORSDOF 4
