REMARK  3 active torsions:
REMARK  status: ('A' for Active; 'I' for Inactive)
REMARK    1  A    between atoms: C1_1  and  C2_2 
REMARK    2  A    between atoms: C4_4  and  C9_11 
REMARK    3  A    between atoms: C6_6  and  N1_8 
ROOT
ATOM      1  C2  <0> d          -0.018   1.503   0.010  0.00  0.00    -0.059 A 
ATOM      2  C3  <0> d          -1.230   2.175   0.020  0.00  0.00    -0.070 A 
ATOM      3  C4  <0> d          -1.262   3.552   0.033  0.00  0.00    -0.038 A 
ATOM      4  C5  <0> d          -0.068   4.277   0.026  0.00  0.00     0.076 A 
ATOM      5  C6  <0> d           1.158   3.593   0.010  0.00  0.00     0.047 A 
ATOM      6  C7  <0> d           1.170   2.205   0.003  0.00  0.00    -0.051 A 
ATOM      7  C8  <0> d          -0.094   5.709   0.034  0.00  0.00     0.102 C 
ATOM      8  N2  <0> d          -0.115   6.845   0.041  0.00  0.00    -0.191 NA
ATOM      9  H4  <0> d          -2.154   1.616   0.021  0.00  0.00     0.085 H 
ATOM     10  H5  <0> d           2.110   1.673  -0.009  0.00  0.00     0.087 H 
ENDROOT
BRANCH   3  11
ATOM     11  C9  <0> d          -2.584   4.276   0.050  0.00  0.00    -0.050 C 
ATOM     12  H8  <0> d          -2.912   4.456  -0.974  0.00  0.00     0.033 H 
ATOM     13  H9  <0> d          -3.325   3.667   0.567  0.00  0.00     0.033 H 
ATOM     14  H10 <0> d          -2.470   5.228   0.568  0.00  0.00     0.033 H 
ENDBRANCH   3  11
BRANCH   5  15
ATOM     15  N1  <0> d           2.354   4.303   0.002  0.00  0.00    -0.398 N 
ATOM     16  H6  <0> d           3.199   3.828  -0.009  0.00  0.00     0.156 HD
ATOM     17  H7  <0> d           2.342   5.272   0.008  0.00  0.00     0.156 HD
ENDBRANCH   5  15
BRANCH   1  18
ATOM     18  C1  <0> d           0.002  -0.004   0.002  0.00  0.00    -0.051 C 
ATOM     19  H1  <0> d           0.017  -0.373   1.028  0.00  0.00     0.033 H 
ATOM     20  H2  <0> d          -0.888  -0.377  -0.505  0.00  0.00     0.033 H 
ATOM     21  H3  <0> d           0.892  -0.352  -0.522  0.00  0.00     0.033 H 
ENDBRANCH   1  18
TORSDOF 3
