REMARK  5 active torsions:
REMARK  status: ('A' for Active; 'I' for Inactive)
REMARK    1  A    between atoms: C1_1  and  C2_2 
REMARK    2  A    between atoms: C2_2  and  C3_3 
REMARK    3  A    between atoms: C2_2  and  C4_4 
REMARK    4  A    between atoms: C4_4  and  O1_5 
REMARK    5  A    between atoms: O1_5  and  C5_6 
ROOT
ATOM      1  C4  <0> d          -1.350   5.832   0.045  0.00  0.00     0.029 C 
ATOM      2  H8  <0> d          -1.912   5.536  -0.841  0.00  0.00     0.075 H 
ATOM      3  H9  <0> d          -1.895   5.527   0.939  0.00  0.00     0.075 H 
ENDROOT
BRANCH   1   4
ATOM      4  C2  <0> d          -1.171   7.351   0.050  0.00  0.00    -0.040 C 
ATOM      5  H4  <0> d          -0.534   7.639   0.887  0.00  0.00     0.042 H 
BRANCH   4   6
ATOM      6  C1  <0> d          -0.518   7.793  -1.262  0.00  0.00    -0.071 C 
ATOM      7  H1  <0> d          -0.390   8.875  -1.258  0.00  0.00     0.028 H 
ATOM      8  H2  <0> d           0.455   7.312  -1.363  0.00  0.00     0.028 H 
ATOM      9  H3  <0> d          -1.155   7.505  -2.098  0.00  0.00     0.028 H 
ENDBRANCH   4   6
BRANCH   4  10
ATOM     10  C3  <0> d          -2.536   8.026   0.193  0.00  0.00    -0.071 C 
ATOM     11  H5  <0> d          -3.001   7.712   1.127  0.00  0.00     0.028 H 
ATOM     12  H6  <0> d          -2.408   9.109   0.197  0.00  0.00     0.028 H 
ATOM     13  H7  <0> d          -3.173   7.739  -0.644  0.00  0.00     0.028 H 
ENDBRANCH   4  10
ENDBRANCH   1   4
BRANCH   1  14
ATOM     14  O1  <0> d          -0.069   5.201   0.029  0.00  0.00    -0.351 OA
BRANCH  14  15
ATOM     15  C5  <0> d          -0.050   3.842   0.023  0.00  0.00     0.068 A 
ATOM     16  C10 <0> d          -1.241   3.131   0.031  0.00  0.00    -0.051 A 
ATOM     17  C9  <0> d          -1.220   1.750   0.017  0.00  0.00    -0.080 A 
ATOM     18  H14 <0> d          -2.185   3.657   0.042  0.00  0.00     0.087 H 
ATOM     19  C8  <0> d          -0.013   1.076   0.008  0.00  0.00    -0.083 A 
ATOM     20  H13 <0> d          -2.147   1.196   0.018  0.00  0.00     0.083 H 
ATOM     21  C7  <0> d           1.176   1.782   0.000  0.00  0.00    -0.080 A 
ATOM     22  H12 <0> d           0.002  -0.004   0.002  0.00  0.00     0.083 H 
ATOM     23  C6  <0> d           1.160   3.163   0.007  0.00  0.00    -0.051 A 
ATOM     24  H11 <0> d           2.118   1.254  -0.011  0.00  0.00     0.083 H 
ATOM     25  H10 <0> d           2.089   3.715   0.001  0.00  0.00     0.087 H 
ENDBRANCH  14  15
ENDBRANCH   1  14
TORSDOF 5
