REMARK  1 active torsions:
REMARK  status: ('A' for Active; 'I' for Inactive)
REMARK    1  A    between atoms: C5_6  and  N2_7 
ROOT
ATOM      1  C1  <0> d           0.002  -0.004   0.002  0.00  0.00    -0.040 A 
ATOM      2  C2  <0> d           1.214  -0.660  -0.013  0.00  0.00    -0.018 A 
ATOM      3  N1  <0> d           2.350   0.013  -0.021  0.00  0.00    -0.342 N 
ATOM      4  C3  <0> d           2.378   1.336  -0.014  0.00  0.00     0.220 A 
ATOM      5  C4  <0> d           1.201   2.069   0.002  0.00  0.00     0.196 A 
ATOM      6  C5  <0> d          -0.017   1.391   0.010  0.00  0.00     0.070 A 
ATOM      7  F1  <0> d           1.234   3.420   0.008  0.00  0.00    -0.199 F 
ATOM      8  O1  <0> d           3.572   1.983  -0.023  0.00  0.00    -0.169 OA
ATOM      9  H1  <0> d          -0.922  -0.563   0.007  0.00  0.00     0.089 H 
ATOM     10  H2  <0> d           1.235  -1.740  -0.019  0.00  0.00     0.111 H 
ATOM     11  H5  <0> d           3.309  -0.527  -0.033  0.00  0.00     0.167 HD
ENDROOT
BRANCH   6  12
ATOM     12  N2  <0> d          -1.223   2.089   0.019  0.00  0.00    -0.396 N 
ATOM     13  H3  <0> d          -1.222   3.189   0.025  0.00  0.00     0.156 HD
ATOM     14  H4  <0> d          -2.176   1.540   0.021  0.00  0.00     0.156 HD
ENDBRANCH   6  12
TORSDOF 1
