REMARK  4 active torsions:
REMARK  status: ('A' for Active; 'I' for Inactive)
REMARK    1  A    between atoms: C3_3  and  C6_7 
REMARK    2  A    between atoms: C6_7  and  C7_8 
REMARK    3  A    between atoms: C7_8  and  C8_9 
REMARK    4  A    between atoms: C8_9  and  O1_10 
ROOT
ATOM      1  C6  <0> d           2.368   4.004   0.002  0.00  0.00    -0.038 C 
ATOM      2  H5  <0> d           2.189   4.945   0.522  0.00  0.00     0.040 H 
ATOM      3  H6  <0> d           3.163   3.455   0.505  0.00  0.00     0.040 H 
ENDROOT
BRANCH   1   4
ATOM      4  C3  <0> d           1.107   3.179   0.009  0.00  0.00    -0.041 A 
ATOM      5  C2  <0> d           1.174   1.794   0.001  0.00  0.00    -0.074 A 
ATOM      6  C1  <0> d          -0.013   1.076   0.008  0.00  0.00    -0.066 A 
ATOM      7  H2  <0> d           2.127   1.287  -0.012  0.00  0.00     0.084 H 
ATOM      8  C5  <0> d          -1.214   1.759   0.017  0.00  0.00     0.002 A 
ATOM      9  H1  <0> d           0.002  -0.004   0.002  0.00  0.00     0.085 H 
ATOM     10  N1  <0> d          -1.239   3.078   0.030  0.00  0.00    -0.273 NA
ATOM     11  H4  <0> d          -2.142   1.207   0.018  0.00  0.00     0.114 H 
ATOM     12  C4  <0> d          -0.132   3.793   0.024  0.00  0.00     0.008 A 
ATOM     13  H3  <0> d          -0.193   4.871   0.030  0.00  0.00     0.115 H 
ENDBRANCH   1   4
BRANCH   1  14
ATOM     14  C7  <0> d           2.781   4.291  -1.443  0.00  0.00    -0.042 C 
ATOM     15  H7  <0> d           2.959   3.350  -1.964  0.00  0.00     0.036 H 
ATOM     16  H8  <0> d           1.985   4.840  -1.947  0.00  0.00     0.036 H 
BRANCH  14  17
ATOM     17  C8  <0> d           4.061   5.129  -1.450  0.00  0.00     0.017 C 
ATOM     18  H9  <0> d           3.883   6.069  -0.930  0.00  0.00     0.073 H 
ATOM     19  H10 <0> d           4.857   4.580  -0.947  0.00  0.00     0.073 H 
BRANCH  17  20
ATOM     20  O1  <0> d           4.447   5.397  -2.800  0.00  0.00    -0.401 OA
ATOM     21  H11 <0> d           5.253   5.925  -2.881  0.00  0.00     0.209 HD
ENDBRANCH  17  20
ENDBRANCH  14  17
ENDBRANCH   1  14
TORSDOF 4
