REMARK  0 active torsions:
REMARK  status: ('A' for Active; 'I' for Inactive)
ROOT
ATOM      1  C1  <0> d           2.120   0.681  -0.015  0.00  0.00     0.014 A 
ATOM      2  C2  <0> d           1.337  -0.423  -0.013  0.00  0.00     0.047 A 
ATOM      3  C3  <0> d           0.002  -0.004   0.002  0.00  0.00     0.040 A 
ATOM      4  N1  <0> d          -0.016   1.304   0.009  0.00  0.00    -0.186 NA
ATOM      5  N2  <0> d           1.309   1.760  -0.001  0.00  0.00    -0.288 N 
ATOM      6  H1  <0> d           1.602   2.716   0.001  0.00  0.00     0.188 HD
ATOM      7 Br1  <0> d           1.940  -2.215  -0.028  0.00  0.00    -0.048 Br
ATOM      8  H2  <0> d           3.200   0.696  -0.025  0.00  0.00     0.116 H 
ATOM      9  H3  <0> d          -0.864  -0.649   0.007  0.00  0.00     0.119 H 
ENDROOT
TORSDOF 0
