REMARK  2 active torsions:
REMARK  status: ('A' for Active; 'I' for Inactive)
REMARK    1  A    between atoms: C1_1  and  C2_2 
REMARK    2  A    between atoms: C7_7  and  C8_8 
ROOT
ATOM      1  C2  <0> d           0.002  -0.004   0.002  0.00  0.00    -0.054 A 
ATOM      2  C3  <0> d           0.006  -0.684  -1.209  0.00  0.00    -0.074 A 
ATOM      3  C4  <0> d           0.024  -2.050  -1.240  0.00  0.00    -0.053 A 
ATOM      4  C5  <0> d           0.039  -2.768  -0.048  0.00  0.00     0.082 A 
ATOM      5  C6  <0> d           0.036  -2.086   1.181  0.00  0.00     0.115 A 
ATOM      6  C7  <0> d           0.022  -0.685   1.184  0.00  0.00    -0.023 A 
ATOM      7  N1  <0> d           0.053  -3.010   2.162  0.00  0.00    -0.130 NA
ATOM      8  N2  <0> d           0.066  -4.194   1.659  0.00  0.00    -0.067 NA
ATOM      9  N3  <0> d           0.058  -4.108   0.259  0.00  0.00    -0.258 N 
ATOM     10  H1  <0> d           0.065  -4.847  -0.368  0.00  0.00     0.191 HD
ATOM     11  H5  <0> d          -0.006  -0.128  -2.135  0.00  0.00     0.084 H 
ATOM     12  H6  <0> d           0.025  -2.571  -2.186  0.00  0.00     0.087 H 
ENDROOT
BRANCH   1  13
ATOM     13  C1  <0> d          -0.018   1.503   0.010  0.00  0.00    -0.051 C 
ATOM     14  H2  <0> d           1.004   1.880   0.003  0.00  0.00     0.033 H 
ATOM     15  H3  <0> d          -0.545   1.864  -0.873  0.00  0.00     0.033 H 
ATOM     16  H4  <0> d          -0.529   1.854   0.907  0.00  0.00     0.033 H 
ENDBRANCH   1  13
BRANCH   6  17
ATOM     17  C8  <0> d           0.025   0.068   2.490  0.00  0.00    -0.048 C 
ATOM     18  H7  <0> d          -1.002   0.236   2.814  0.00  0.00     0.033 H 
ATOM     19  H8  <0> d           0.554  -0.514   3.244  0.00  0.00     0.033 H 
ATOM     20  H9  <0> d           0.524   1.027   2.355  0.00  0.00     0.033 H 
ENDBRANCH   6  17
TORSDOF 2
