REMARK  7 active torsions:
REMARK  status: ('A' for Active; 'I' for Inactive)
REMARK    1  A    between atoms: C1_1  and  C2_2 
REMARK    2  A    between atoms: C2_2  and  C3_3 
REMARK    3  A    between atoms: C2_2  and  C4_4 
REMARK    4  A    between atoms: C2_2  and  O2_8 
REMARK    5  A    between atoms: C4_4  and  C5_5 
REMARK    6  A    between atoms: C4_4  and  C6_6 
REMARK    7  A    between atoms: C4_4  and  O1_7 
ROOT
ATOM      1  C2  <0> d           2.040   1.127  -1.261  0.00  0.00     0.081 C 
ENDROOT
BRANCH   1   2
ATOM      2  C1  <0> d           3.429   1.769  -1.270  0.00  0.00    -0.045 C 
ATOM      3  H1  <0> d           3.982   1.450  -0.388  0.00  0.00     0.031 H 
ATOM      4  H2  <0> d           3.966   1.459  -2.167  0.00  0.00     0.031 H 
ATOM      5  H3  <0> d           3.328   2.854  -1.264  0.00  0.00     0.031 H 
ENDBRANCH   1   2
BRANCH   1   6
ATOM      6  C3  <0> d           2.181  -0.396  -1.270  0.00  0.00    -0.045 C 
ATOM      7  H4  <0> d           1.192  -0.853  -1.263  0.00  0.00     0.031 H 
ATOM      8  H5  <0> d           2.718  -0.706  -2.167  0.00  0.00     0.031 H 
ATOM      9  H6  <0> d           2.735  -0.715  -0.387  0.00  0.00     0.031 H 
ENDBRANCH   1   6
BRANCH   1  10
ATOM     10  C4  <0> d           1.286   1.562  -0.002  0.00  0.00     0.081 C 
BRANCH  10  11
ATOM     11  C5  <0> d           1.145   3.085   0.008  0.00  0.00    -0.045 C 
ATOM     12  H7  <0> d           0.608   3.395   0.904  0.00  0.00     0.031 H 
ATOM     13  H8  <0> d           2.135   3.542   0.001  0.00  0.00     0.031 H 
ATOM     14  H9  <0> d           0.591   3.404  -0.875  0.00  0.00     0.031 H 
ENDBRANCH  10  11
BRANCH  10  15
ATOM     15  C6  <0> d           2.064   1.114   1.238  0.00  0.00    -0.045 C 
ATOM     16  H10 <0> d           2.164   0.029   1.231  0.00  0.00     0.031 H 
ATOM     17  H11 <0> d           3.053   1.571   1.231  0.00  0.00     0.031 H 
ATOM     18  H12 <0> d           1.527   1.423   2.135  0.00  0.00     0.031 H 
ENDBRANCH  10  15
BRANCH  10  19
ATOM     19  O1  <0> d          -0.011   0.963   0.007  0.00  0.00    -0.388 OA
ATOM     20  H13 <0> d           0.002  -0.004   0.002  0.00  0.00     0.210 HD
ENDBRANCH  10  19
ENDBRANCH   1  10
BRANCH   1  21
ATOM     21  O2  <0> d           1.314   1.546  -2.418  0.00  0.00    -0.388 OA
ATOM     22  H14 <0> d           1.734   1.303  -3.255  0.00  0.00     0.210 HD
ENDBRANCH   1  21
TORSDOF 7
