REMARK  0 active torsions:
REMARK  status: ('A' for Active; 'I' for Inactive)
ROOT
ATOM      1  C1  <0> d          -0.016   1.302   0.009  0.00  0.00     0.126 A 
ATOM      2  N1  <0> d           1.232   1.763  -0.000  0.00  0.00    -0.052 NA
ATOM      3  C2  <0> d           2.089   0.750  -0.014  0.00  0.00     0.755 A 
ATOM      4  N2  <0> d           1.350  -0.395  -0.013  0.00  0.00    -0.024 N 
ATOM      5  N3  <0> d           0.002  -0.004   0.002  0.00  0.00    -0.142 NA
ATOM      6  C3  <0> d           1.930  -1.613  -0.025  0.00  0.00     0.269 A 
ATOM      7  O1  <0> d           1.267  -2.623  -0.024  0.00  0.00    -0.270 OA
ATOM      8  C4  <0> d           3.446  -1.665  -0.039  0.00  0.00     0.076 A 
ATOM      9  C5  <0> d           4.162  -0.329  -0.039  0.00  0.00     0.204 A 
ATOM     10  O2  <0> d           5.507  -0.268  -0.051  0.00  0.00    -0.174 OA
ATOM     11  N4  <0> d           3.446   0.756  -0.027  0.00  0.00    -0.037 NA
ATOM     12  H1  <0> d          -0.906   1.913   0.025  0.00  0.00     0.150 H 
ATOM     13  H2  <0> d           3.774  -2.226   0.836  0.00  0.00     0.060 H 
ATOM     14  H3  <0> d           3.758  -2.216  -0.925  0.00  0.00     0.060 H 
ENDROOT
TORSDOF 0
