REMARK  4 active torsions:
REMARK  status: ('A' for Active; 'I' for Inactive)
REMARK    1  A    between atoms: C1_1  and  C2_2 
REMARK    2  A    between atoms: N2_5  and  C5_7 
REMARK    3  A    between atoms: C5_7  and  C6_9 
REMARK    4  A    between atoms: C5_7  and  C7_10 
REMARK       I    between atoms: C7_10  and  N3_12 
ROOT
ATOM      1  C2  <0> d           0.002  -0.004   0.002  0.00  0.00    -0.026 A 
ATOM      2  C3  <0> d           0.009  -0.821  -1.133  0.00  0.00     0.029 A 
ATOM      3  N1  <0> d           0.028  -2.068  -0.740  0.00  0.00    -0.184 NA
ATOM      4  N2  <0> d           0.034  -2.085   0.661  0.00  0.00    -0.267 N 
ATOM      5  C4  <0> d           0.023  -0.806   1.092  0.00  0.00     0.006 A 
ATOM      6  H5  <0> d          -0.001  -0.480  -2.158  0.00  0.00     0.118 H 
ATOM      7  H6  <0> d           0.028  -0.481   2.122  0.00  0.00     0.115 H 
ENDROOT
BRANCH   4   8
ATOM      8  C5  <0> d           0.054  -3.280   1.509  0.00  0.00     0.107 C 
ATOM      9  H1  <0> d           0.498  -4.109   0.958  0.00  0.00     0.090 H 
BRANCH   8  10
ATOM     10  C6  <0> d          -1.376  -3.643   1.912  0.00  0.00    -0.047 C 
ATOM     11  H7  <0> d          -1.361  -4.532   2.543  0.00  0.00     0.030 H 
ATOM     12  H8  <0> d          -1.820  -2.814   2.463  0.00  0.00     0.030 H 
ATOM     13  H9  <0> d          -1.967  -3.842   1.018  0.00  0.00     0.030 H 
ENDBRANCH   8  10
BRANCH   8  14
ATOM     14  C7  <0> d           0.870  -3.004   2.745  0.00  0.00     0.239 C 
ATOM     15  O1  <0> d           1.384  -1.917   2.903  0.00  0.00    -0.271 OA
ATOM     16  N3  <0> d           1.029  -3.966   3.676  0.00  0.00    -0.368 N 
ATOM     17  H10 <0> d           0.618  -4.836   3.550  0.00  0.00     0.159 HD
ATOM     18  H11 <0> d           1.554  -3.789   4.472  0.00  0.00     0.159 HD
ENDBRANCH   8  14
ENDBRANCH   4   8
BRANCH   1  19
ATOM     19  C1  <0> d          -0.018   1.503   0.010  0.00  0.00    -0.049 C 
ATOM     20  H2  <0> d           1.004   1.880   0.003  0.00  0.00     0.033 H 
ATOM     21  H3  <0> d          -0.545   1.864  -0.873  0.00  0.00     0.033 H 
ATOM     22  H4  <0> d          -0.529   1.854   0.907  0.00  0.00     0.033 H 
ENDBRANCH   1  19
TORSDOF 4
