REMARK  4 active torsions:
REMARK  status: ('A' for Active; 'I' for Inactive)
REMARK    1  A    between atoms: C1_1  and  C2_2 
REMARK    2  A    between atoms: C2_2  and  C10_13 
REMARK    3  A    between atoms: C6_7  and  C9_11 
REMARK    4  A    between atoms: C9_11  and  O1_12 
ROOT
ATOM      1  C2  <0> d           2.160   5.073  -1.104  0.00  0.00    -0.036 C 
ATOM      2  C3  <0> d           1.277   5.753  -0.043  0.00  0.00    -0.043 C 
ATOM      3  H1  <0> d           1.285   6.842  -0.070  0.00  0.00     0.041 H 
ATOM      4  C4  <0> d          -0.129   5.144   0.039  0.00  0.00    -0.045 C 
ATOM      5  C5  <0> d          -0.034   3.638   0.022  0.00  0.00    -0.098 C 
ATOM      6  C6  <0> d           1.147   3.062   0.008  0.00  0.00    -0.056 C 
ATOM      7  C7  <0> d           2.366   3.968   0.007  0.00  0.00    -0.023 C 
ATOM      8  H2  <0> d           3.324   3.447   0.021  0.00  0.00     0.048 H 
ATOM      9  C8  <0> d           2.211   5.121   1.010  0.00  0.00    -0.053 C 
ATOM     10  H6  <0> d          -0.720   5.480  -0.813  0.00  0.00     0.039 H 
ATOM     11  H7  <0> d          -0.610   5.466   0.963  0.00  0.00     0.039 H 
ATOM     12  H8  <0> d          -0.931   3.036   0.022  0.00  0.00     0.077 H 
ATOM     13  H9  <0> d           3.128   5.684   1.181  0.00  0.00     0.034 H 
ATOM     14  H10 <0> d           1.706   4.835   1.932  0.00  0.00     0.034 H 
ENDROOT
BRANCH   1  15
ATOM     15  C1  <0> d           1.393   4.609  -2.344  0.00  0.00    -0.068 C 
ATOM     16  H3  <0> d           1.216   5.460  -3.001  0.00  0.00     0.028 H 
ATOM     17  H4  <0> d           1.979   3.857  -2.872  0.00  0.00     0.028 H 
ATOM     18  H5  <0> d           0.439   4.179  -2.040  0.00  0.00     0.028 H 
ENDBRANCH   1  15
BRANCH   1  19
ATOM     19  C10 <0> d           3.434   5.852  -1.441  0.00  0.00    -0.068 C 
ATOM     20  H14 <0> d           3.861   6.263  -0.526  0.00  0.00     0.028 H 
ATOM     21  H15 <0> d           4.155   5.182  -1.909  0.00  0.00     0.028 H 
ATOM     22  H16 <0> d           3.192   6.664  -2.127  0.00  0.00     0.028 H 
ENDBRANCH   1  19
BRANCH   6  23
ATOM     23  C9  <0> d           1.286   1.562  -0.002  0.00  0.00     0.037 C 
ATOM     24  H11 <0> d           1.840   1.243   0.881  0.00  0.00     0.081 H 
ATOM     25  H12 <0> d           1.823   1.252  -0.899  0.00  0.00     0.081 H 
BRANCH  23  26
ATOM     26  O1  <0> d          -0.011   0.963   0.007  0.00  0.00    -0.397 OA
ATOM     27  H13 <0> d           0.002  -0.004   0.002  0.00  0.00     0.209 HD
ENDBRANCH  23  26
ENDBRANCH   6  23
TORSDOF 4
