REMARK  7 active torsions:
REMARK  status: ('A' for Active; 'I' for Inactive)
REMARK    1  A    between atoms: C1_1  and  C2_2 
REMARK    2  A    between atoms: C2_2  and  C3_3 
REMARK    3  A    between atoms: C2_2  and  C4_4 
REMARK    4  A    between atoms: C4_4  and  C5_6 
REMARK    5  A    between atoms: C4_4  and  O2_8 
REMARK    6  A    between atoms: O2_8  and  C6_9 
REMARK    7  A    between atoms: C6_9  and  C7_11 
ROOT
ATOM      1  C4  <0> d          -0.729   1.579   1.267  0.00  0.00     0.134 C 
ATOM      2  H1  <0> d          -0.744   2.669   1.273  0.00  0.00     0.102 H 
ENDROOT
BRANCH   1   3
ATOM      3  C2  <0> d          -0.013   1.086   0.008  0.00  0.00    -0.026 C 
ATOM      4  H5  <0> d           0.002  -0.004   0.002  0.00  0.00     0.043 H 
BRANCH   3   5
ATOM      5  C1  <0> d           1.423   1.615  -0.003  0.00  0.00    -0.070 C 
ATOM      6  H2  <0> d           1.950   1.254   0.880  0.00  0.00     0.028 H 
ATOM      7  H3  <0> d           1.933   1.264  -0.900  0.00  0.00     0.028 H 
ATOM      8  H4  <0> d           1.408   2.705   0.003  0.00  0.00     0.028 H 
ENDBRANCH   3   5
BRANCH   3   9
ATOM      9  C3  <0> d          -0.753   1.593  -1.232  0.00  0.00    -0.070 C 
ATOM     10  H6  <0> d          -0.242   1.241  -2.128  0.00  0.00     0.028 H 
ATOM     11  H7  <0> d          -1.775   1.215  -1.224  0.00  0.00     0.028 H 
ATOM     12  H8  <0> d          -0.767   2.683  -1.226  0.00  0.00     0.028 H 
ENDBRANCH   3   9
ENDBRANCH   1   3
BRANCH   1  13
ATOM     13  C5  <0> d           0.000   1.080   2.488  0.00  0.00     0.204 C 
ATOM     14  O1  <0> d          -0.540   0.301   3.237  0.00  0.00    -0.646 OA
ATOM     15  O4  <0> d           1.249   1.500   2.742  0.00  0.00    -0.646 OA
ENDBRANCH   1  13
BRANCH   1  16
ATOM     16  O2  <0> d          -2.091   1.077   1.277  0.00  0.00    -0.305 OA
BRANCH  16  17
ATOM     17  C6  <0> d          -3.015   1.834   1.888  0.00  0.00     0.255 C 
ATOM     18  O3  <0> d          -2.697   2.883   2.397  0.00  0.00    -0.266 OA
BRANCH  17  19
ATOM     19  C7  <0> d          -4.451   1.377   1.939  0.00  0.00     0.004 C 
ATOM     20  H9  <0> d          -4.610   0.780   2.837  0.00  0.00     0.041 H 
ATOM     21  H10 <0> d          -5.108   2.246   1.959  0.00  0.00     0.041 H 
ATOM     22  H11 <0> d          -4.671   0.775   1.058  0.00  0.00     0.041 H 
ENDBRANCH  17  19
ENDBRANCH  16  17
ENDBRANCH   1  16
TORSDOF 7
