REMARK  4 active torsions:
REMARK  status: ('A' for Active; 'I' for Inactive)
REMARK    1  A    between atoms: C1_1  and  C2_2 
REMARK    2  A    between atoms: C2_2  and  O1_3 
REMARK    3  A    between atoms: O1_3  and  C3_4 
REMARK    4  A    between atoms: C4_5  and  N3_10 
ROOT
ATOM      1  C3  <0> d           0.802  -1.823   1.306  0.00  0.00     0.211 A 
ATOM      2  C4  <0> d           1.461  -2.358   2.419  0.00  0.00     0.174 A 
ATOM      3  N1  <0> d           1.562  -3.671   2.554  0.00  0.00    -0.238 NA
ATOM      4  C5  <0> d           1.041  -4.473   1.637  0.00  0.00     0.021 A 
ATOM      5  C6  <0> d           0.392  -3.945   0.541  0.00  0.00     0.022 A 
ATOM      6  N2  <0> d           0.281  -2.633   0.399  0.00  0.00    -0.232 NA
ATOM      7  H6  <0> d           1.125  -5.544   1.749  0.00  0.00     0.117 H 
ATOM      8  H7  <0> d          -0.031  -4.604  -0.202  0.00  0.00     0.117 H 
ENDROOT
BRANCH   1   9
ATOM      9  O1  <0> d           0.693  -0.477   1.160  0.00  0.00    -0.332 OA
BRANCH   9  10
ATOM     10  C2  <0> d           0.002  -0.004   0.002  0.00  0.00     0.024 C 
ATOM     11  H4  <0> d          -1.020  -0.381   0.010  0.00  0.00     0.074 H 
ATOM     12  H5  <0> d           0.512  -0.356  -0.895  0.00  0.00     0.074 H 
BRANCH  10  13
ATOM     13  C1  <0> d          -0.019   1.526   0.010  0.00  0.00    -0.056 C 
ATOM     14  H1  <0> d           1.004   1.903   0.003  0.00  0.00     0.030 H 
ATOM     15  H2  <0> d          -0.546   1.887  -0.873  0.00  0.00     0.030 H 
ATOM     16  H3  <0> d          -0.529   1.877   0.907  0.00  0.00     0.030 H 
ENDBRANCH  10  13
ENDBRANCH   9  10
ENDBRANCH   1   9
BRANCH   2  17
ATOM     17  N3  <0> d           2.008  -1.513   3.380  0.00  0.00    -0.380 N 
ATOM     18  H8  <0> d           1.933  -0.551   3.279  0.00  0.00     0.157 HD
ATOM     19  H9  <0> d           2.464  -1.885   4.150  0.00  0.00     0.157 HD
ENDBRANCH   2  17
TORSDOF 4
