REMARK  2 active torsions:
REMARK  status: ('A' for Active; 'I' for Inactive)
REMARK    1  A    between atoms: C1_1  and  C2_2 
REMARK    2  A    between atoms: C10_11  and  C11_12 
ROOT
ATOM      1  C2  <0> d           0.018  -2.855  -2.378  0.00  0.00    -0.032 A 
ATOM      2  C3  <0> d          -0.020  -2.184  -3.562  0.00  0.00    -0.075 A 
ATOM      3  C4  <0> d          -0.040  -0.792  -3.599  0.00  0.00    -0.082 A 
ATOM      4  C5  <0> d          -0.033  -0.062  -2.449  0.00  0.00    -0.070 A 
ATOM      5  C6  <0> d          -0.005  -0.721  -1.210  0.00  0.00    -0.001 A 
ATOM      6  C7  <0> d           0.020  -2.137  -1.170  0.00  0.00     0.073 A 
ATOM      7  N1  <0> d           0.040  -2.769   0.008  0.00  0.00    -0.260 NA
ATOM      8  C8  <0> d           0.042  -2.105   1.138  0.00  0.00     0.003 A 
ATOM      9  C9  <0> d           0.023  -0.712   1.170  0.00  0.00    -0.059 A 
ATOM     10  C10 <0> d           0.002  -0.004   0.002  0.00  0.00    -0.048 A 
ATOM     11  H4  <0> d          -0.026  -2.740  -4.488  0.00  0.00     0.084 H 
ATOM     12  H5  <0> d          -0.061  -0.284  -4.552  0.00  0.00     0.083 H 
ATOM     13  H6  <0> d          -0.049   1.017  -2.490  0.00  0.00     0.084 H 
ATOM     14  H7  <0> d           0.058  -2.652   2.069  0.00  0.00     0.114 H 
ATOM     15  H8  <0> d           0.024  -0.193   2.117  0.00  0.00     0.086 H 
ENDROOT
BRANCH   1  16
ATOM     16  C1  <0> d           0.038  -4.362  -2.363  0.00  0.00    -0.049 C 
ATOM     17  H1  <0> d          -0.984  -4.739  -2.349  0.00  0.00     0.033 H 
ATOM     18  H2  <0> d           0.548  -4.727  -3.255  0.00  0.00     0.033 H 
ATOM     19  H3  <0> d           0.566  -4.709  -1.475  0.00  0.00     0.033 H 
ENDBRANCH   1  16
BRANCH  10  20
ATOM     20  C11 <0> d          -0.018   1.503   0.010  0.00  0.00    -0.050 C 
ATOM     21  H9  <0> d           1.004   1.880   0.003  0.00  0.00     0.033 H 
ATOM     22  H10 <0> d          -0.545   1.864  -0.873  0.00  0.00     0.033 H 
ATOM     23  H11 <0> d          -0.529   1.854   0.907  0.00  0.00     0.033 H 
ENDBRANCH  10  20
TORSDOF 2
