REMARK  3 active torsions:
REMARK  status: ('A' for Active; 'I' for Inactive)
REMARK    1  A    between atoms: C1_1  and  C2_2 
REMARK    2  A    between atoms: C3_3  and  C4_4 
REMARK    3  A    between atoms: C5_5  and  C6_6 
ROOT
ATOM      1  C6  <0> d           1.240  -4.236   1.979  0.00  0.00    -0.089 C 
ATOM      2  C7  <0> d           1.256  -5.410   1.973  0.00  0.00    -0.150 C 
ATOM      3  H8  <0> d           1.270  -6.460   1.967  0.00  0.00     0.166 H 
ENDROOT
BRANCH   1   4
ATOM      4  C5  <0> d           1.220  -2.804   1.987  0.00  0.00    -0.034 C 
ATOM      5  C4  <0> d           0.618  -2.132   0.985  0.00  0.00    -0.075 C 
ATOM      6  H6  <0> d           0.150  -2.675   0.176  0.00  0.00     0.084 H 
ATOM      7  H7  <0> d           1.688  -2.263   2.795  0.00  0.00     0.097 H 
BRANCH   5   8
ATOM      8  C3  <0> d           0.598  -0.668   0.993  0.00  0.00    -0.086 C 
ATOM      9  C2  <0> d           0.002  -0.004   0.002  0.00  0.00    -0.107 C 
ATOM     10  H4  <0> d          -0.466  -0.546  -0.806  0.00  0.00     0.076 H 
ATOM     11  H5  <0> d           1.066  -0.126   1.801  0.00  0.00     0.083 H 
BRANCH   9  12
ATOM     12  C1  <0> d          -0.018   1.503   0.010  0.00  0.00    -0.060 C 
ATOM     13  H1  <0> d           1.004   1.880   0.003  0.00  0.00     0.032 H 
ATOM     14  H2  <0> d          -0.545   1.864  -0.873  0.00  0.00     0.032 H 
ATOM     15  H3  <0> d          -0.529   1.854   0.907  0.00  0.00     0.032 H 
ENDBRANCH   9  12
ENDBRANCH   5   8
ENDBRANCH   1   4
TORSDOF 3
