REMARK  1 active torsions:
REMARK  status: ('A' for Active; 'I' for Inactive)
REMARK    1  A    between atoms: C2_2  and  C3_3 
ROOT
ATOM      1  C1  <0> d           0.018  -1.178  -0.004  0.00  0.00    -0.154 C 
ATOM      2  C2  <0> d           0.002  -0.004   0.002  0.00  0.00    -0.113 C 
ATOM      3  H1  <0> d           0.032  -2.228  -0.010  0.00  0.00     0.166 H 
ENDROOT
BRANCH   2   4
ATOM      4  C3  <0> d          -0.018   1.468   0.010  0.00  0.00     0.005 C 
ATOM      5  C8  <0> d           1.417   1.997  -0.001  0.00  0.00    -0.052 C 
ATOM      6  C7  <0> d           1.397   3.527   0.008  0.00  0.00    -0.064 C 
ATOM      7  H11 <0> d           1.945   1.636   0.882  0.00  0.00     0.034 H 
ATOM      8  H12 <0> d           1.928   1.646  -0.897  0.00  0.00     0.034 H 
ATOM      9  C6  <0> d           0.657   4.034  -1.232  0.00  0.00    -0.065 C 
ATOM     10  H9  <0> d           2.419   3.905  -0.000  0.00  0.00     0.033 H 
ATOM     11  H10 <0> d           0.887   3.879   0.904  0.00  0.00     0.033 H 
ATOM     12  C5  <0> d          -0.779   3.504  -1.221  0.00  0.00    -0.064 C 
ATOM     13  H7  <0> d           1.167   3.683  -2.129  0.00  0.00     0.033 H 
ATOM     14  H8  <0> d           0.642   5.124  -1.226  0.00  0.00     0.033 H 
ATOM     15  C4  <0> d          -0.758   1.975  -1.229  0.00  0.00    -0.052 C 
ATOM     16  H5  <0> d          -1.306   3.865  -2.104  0.00  0.00     0.033 H 
ATOM     17  H6  <0> d          -1.289   3.856  -0.324  0.00  0.00     0.033 H 
ATOM     18  H3  <0> d          -0.248   1.623  -2.126  0.00  0.00     0.034 H 
ATOM     19  H4  <0> d          -1.780   1.597  -1.222  0.00  0.00     0.034 H 
ATOM     20  H2  <0> d          -0.528   1.819   0.907  0.00  0.00     0.059 H 
ENDBRANCH   2   4
TORSDOF 1
