REMARK  1 active torsions:
REMARK  status: ('A' for Active; 'I' for Inactive)
REMARK    1  A    between atoms: C3_3  and  O1_8 
ROOT
ATOM      1  C1  <0> d           3.634   1.538   0.725  0.00  0.00    -0.059 C 
ATOM      2  C2  <0> d           2.202   1.224   1.214  0.00  0.00    -0.036 C 
ATOM      3  C3  <0> d           1.286   1.562  -0.002  0.00  0.00     0.058 C 
ATOM      4  C4  <0> d           1.318   3.118  -0.094  0.00  0.00    -0.036 C 
ATOM      5  C5  <0> d           2.767   3.431  -0.596  0.00  0.00    -0.059 C 
ATOM      6  C6  <0> d           3.449   2.036  -0.741  0.00  0.00    -0.051 C 
ATOM      7  C7  <0> d           2.227   1.161  -1.193  0.00  0.00    -0.033 C 
ATOM      8  H1  <0> d           4.082   2.320   1.338  0.00  0.00     0.033 H 
ATOM      9  H2  <0> d           4.249   0.638   0.748  0.00  0.00     0.033 H 
ATOM     10  H3  <0> d           1.946   1.851   2.068  0.00  0.00     0.037 H 
ATOM     11  H4  <0> d           2.111   0.170   1.477  0.00  0.00     0.037 H 
ATOM     12  H5  <0> d           0.572   3.472  -0.805  0.00  0.00     0.037 H 
ATOM     13  H6  <0> d           1.149   3.560   0.888  0.00  0.00     0.037 H 
ATOM     14  H7  <0> d           3.295   4.038   0.139  0.00  0.00     0.033 H 
ATOM     15  H8  <0> d           2.736   3.941  -1.559  0.00  0.00     0.033 H 
ATOM     16  H9  <0> d           4.338   2.003  -1.371  0.00  0.00     0.040 H 
ATOM     17  H10 <0> d           2.473   0.099  -1.180  0.00  0.00     0.037 H 
ATOM     18  H11 <0> d           1.821   1.470  -2.156  0.00  0.00     0.037 H 
ENDROOT
BRANCH   3  19
ATOM     19  O1  <0> d          -0.011   0.963   0.007  0.00  0.00    -0.390 OA
ATOM     20  H12 <0> d           0.002  -0.004   0.002  0.00  0.00     0.210 HD
ENDBRANCH   3  19
TORSDOF 1
