REMARK  1 active torsions:
REMARK  status: ('A' for Active; 'I' for Inactive)
REMARK    1  A    between atoms: C7_9  and  O1_11 
ROOT
ATOM      1  C1  <0> d          -0.017   1.388   0.010  0.00  0.00    -0.079 A 
ATOM      2  C2  <0> d           1.141   2.106   0.003  0.00  0.00    -0.069 A 
ATOM      3  C3  <0> d           2.373   1.435  -0.013  0.00  0.00     0.013 A 
ATOM      4  C4  <0> d           3.600   2.123  -0.020  0.00  0.00     0.016 A 
ATOM      5  N1  <0> d           4.712   1.417  -0.035  0.00  0.00    -0.253 NA
ATOM      6  C5  <0> d           4.694   0.092  -0.042  0.00  0.00     0.087 A 
ATOM      7  N2  <0> d           3.583  -0.605  -0.036  0.00  0.00    -0.238 NA
ATOM      8  C6  <0> d           2.398   0.017  -0.021  0.00  0.00     0.102 A 
ATOM      9  C7  <0> d           1.183  -0.693  -0.014  0.00  0.00     0.095 A 
ATOM     10  C8  <0> d           0.002  -0.004   0.002  0.00  0.00    -0.049 A 
ATOM     11  H1  <0> d          -0.964   1.906   0.026  0.00  0.00     0.083 H 
ATOM     12  H2  <0> d           1.111   3.186   0.008  0.00  0.00     0.085 H 
ATOM     13  H3  <0> d           3.629   3.202  -0.015  0.00  0.00     0.116 H 
ATOM     14  H4  <0> d           5.636  -0.438  -0.053  0.00  0.00     0.146 H 
ATOM     15  H5  <0> d          -0.931  -0.548   0.008  0.00  0.00     0.087 H 
ENDROOT
BRANCH   9  16
ATOM     16  O1  <0> d           1.183  -2.051  -0.022  0.00  0.00    -0.358 OA
ATOM     17  H6  <0> d           1.191  -2.450   0.859  0.00  0.00     0.217 HD
ENDBRANCH   9  16
TORSDOF 1
