REMARK  2 active torsions:
REMARK  status: ('A' for Active; 'I' for Inactive)
REMARK    1  A    between atoms: C4_5  and  N2_8 
REMARK    2  A    between atoms: C5_6  and  O1_7 
ROOT
ATOM      1  C1  <0> d          -0.017   1.382   0.010  0.00  0.00    -0.025 A 
ATOM      2  C2  <0> d          -1.248   2.028   0.019  0.00  0.00     0.052 A 
ATOM      3  C3  <0> d          -2.406   1.276   0.020  0.00  0.00    -0.000 A 
ATOM      4  N1  <0> d          -2.359  -0.044   0.013  0.00  0.00    -0.349 N 
ATOM      5  C4  <0> d          -1.209  -0.698   0.004  0.00  0.00     0.132 A 
ATOM      6  C5  <0> d           0.002  -0.004   0.002  0.00  0.00     0.111 A 
ATOM      7 Cl1  <0> d          -1.328   3.762   0.029  0.00  0.00    -0.083 Cl
ATOM      8  H1  <0> d           0.904   1.948   0.004  0.00  0.00     0.090 H 
ATOM      9  H2  <0> d          -3.364   1.774   0.028  0.00  0.00     0.114 H 
ATOM     10  H3  <0> d          -3.188  -0.546   0.015  0.00  0.00     0.167 HD
ENDROOT
BRANCH   5  11
ATOM     11  N2  <0> d          -1.207  -2.091  -0.003  0.00  0.00    -0.383 N 
ATOM     12  H4  <0> d          -2.047  -2.577  -0.001  0.00  0.00     0.157 HD
ATOM     13  H5  <0> d          -0.367  -2.575  -0.009  0.00  0.00     0.157 HD
ENDBRANCH   5  11
BRANCH   6  14
ATOM     14  O1  <0> d           1.183  -0.678  -0.012  0.00  0.00    -0.357 OA
ATOM     15  H6  <0> d           1.533  -0.878   0.867  0.00  0.00     0.218 HD
ENDBRANCH   6  14
TORSDOF 2
