REMARK  5 active torsions:
REMARK  status: ('A' for Active; 'I' for Inactive)
REMARK    1  A    between atoms: C1_1  and  C2_2 
REMARK    2  A    between atoms: C5_6  and  C8_12 
REMARK    3  A    between atoms: C7_9  and  O1_11 
REMARK    4  A    between atoms: C8_12  and  C9_13 
REMARK    5  A    between atoms: C8_12  and  C10_14 
ROOT
ATOM      1  C2  <0> d           0.742  -0.511   1.242  0.00  0.00    -0.033 C 
ATOM      2  H1  <0> d           0.232  -0.159   2.138  0.00  0.00     0.043 H 
ATOM      3  C3  <0> d           0.002  -0.004   0.002  0.00  0.00    -0.059 C 
ATOM      4  C4  <0> d          -0.019   1.526   0.010  0.00  0.00    -0.061 C 
ATOM      5  C5  <0> d           1.417   2.055  -0.000  0.00  0.00    -0.049 C 
ATOM      6  H2  <0> d           1.927   1.704  -0.897  0.00  0.00     0.040 H 
ATOM      7  C6  <0> d           2.157   1.548   1.239  0.00  0.00    -0.037 C 
ATOM      8  C7  <0> d           2.178   0.019   1.231  0.00  0.00     0.039 C 
ATOM      9  H3  <0> d           2.705  -0.342   2.114  0.00  0.00     0.083 H 
ATOM     10  H7  <0> d          -1.020  -0.381   0.010  0.00  0.00     0.033 H 
ATOM     11  H8  <0> d           0.512  -0.356  -0.895  0.00  0.00     0.033 H 
ATOM     12  H9  <0> d          -0.546   1.887  -0.873  0.00  0.00     0.033 H 
ATOM     13  H10 <0> d          -0.529   1.877   0.907  0.00  0.00     0.033 H 
ATOM     14  H11 <0> d           1.647   1.900   2.136  0.00  0.00     0.037 H 
ATOM     15  H12 <0> d           3.179   1.926   1.231  0.00  0.00     0.037 H 
ENDROOT
BRANCH   5  16
ATOM     16  C8  <0> d           1.396   3.585   0.008  0.00  0.00    -0.058 C 
ATOM     17  H14 <0> d           0.886   3.937   0.905  0.00  0.00     0.039 H 
BRANCH  16  18
ATOM     18  C9  <0> d           2.831   4.115  -0.003  0.00  0.00    -0.073 C 
ATOM     19  H15 <0> d           3.341   3.763  -0.900  0.00  0.00     0.028 H 
ATOM     20  H16 <0> d           2.817   5.205   0.003  0.00  0.00     0.028 H 
ATOM     21  H17 <0> d           3.358   3.754   0.880  0.00  0.00     0.028 H 
ENDBRANCH  16  18
BRANCH  16  22
ATOM     22  C10 <0> d           0.656   4.092  -1.232  0.00  0.00    -0.073 C 
ATOM     23  H18 <0> d           1.166   3.740  -2.128  0.00  0.00     0.028 H 
ATOM     24  H19 <0> d          -0.367   3.715  -1.224  0.00  0.00     0.028 H 
ATOM     25  H20 <0> d           0.641   5.182  -1.226  0.00  0.00     0.028 H 
ENDBRANCH  16  22
ENDBRANCH   5  16
BRANCH   8  26
ATOM     26  O1  <0> d           2.846  -0.442   0.055  0.00  0.00    -0.395 OA
ATOM     27  H13 <0> d           3.763  -0.144  -0.018  0.00  0.00     0.210 HD
ENDBRANCH   8  26
BRANCH   1  28
ATOM     28  C1  <0> d           0.763  -2.041   1.233  0.00  0.00    -0.071 C 
ATOM     29  H4  <0> d           1.273  -2.392   0.336  0.00  0.00     0.028 H 
ATOM     30  H5  <0> d           1.290  -2.402   2.116  0.00  0.00     0.028 H 
ATOM     31  H6  <0> d          -0.260  -2.418   1.241  0.00  0.00     0.028 H 
ENDBRANCH   1  28
TORSDOF 5
