REMARK  4 active torsions:
REMARK  status: ('A' for Active; 'I' for Inactive)
REMARK    1  A    between atoms: C1_1  and  C2_2 
REMARK    2  A    between atoms: C2_2  and  N1_3 
REMARK    3  A    between atoms: C5_6  and  C6_8 
REMARK    4  A    between atoms: C6_8  and  O1_9 
ROOT
ATOM      1  N1  <0> d          -0.711   3.144   0.025  0.00  0.00    -0.281 N 
ATOM      2  C3  <0> d          -1.117   1.857   0.017  0.00  0.00     0.000 A 
ATOM      3  C4  <0> d          -0.013   1.076   0.008  0.00  0.00    -0.039 A 
ATOM      4  C5  <0> d           1.107   1.914   0.002  0.00  0.00     0.079 A 
ATOM      5  N2  <0> d           0.690   3.154   0.012  0.00  0.00    -0.175 NA
ATOM      6  H6  <0> d          -2.141   1.512   0.019  0.00  0.00     0.114 H 
ATOM      7  H7  <0> d           0.002  -0.004   0.002  0.00  0.00     0.088 H 
ENDROOT
BRANCH   1   8
ATOM      8  C2  <0> d          -1.581   4.322   0.039  0.00  0.00     0.013 C 
ATOM      9  H4  <0> d          -1.456   4.878  -0.891  0.00  0.00     0.066 H 
ATOM     10  H5  <0> d          -2.620   4.006   0.136  0.00  0.00     0.066 H 
BRANCH   8  11
ATOM     11  C1  <0> d          -1.208   5.218   1.222  0.00  0.00    -0.059 C 
ATOM     12  H1  <0> d          -1.333   4.662   2.152  0.00  0.00     0.029 H 
ATOM     13  H2  <0> d          -0.170   5.534   1.125  0.00  0.00     0.029 H 
ATOM     14  H3  <0> d          -1.856   6.095   1.233  0.00  0.00     0.029 H 
ENDBRANCH   8  11
ENDBRANCH   1   8
BRANCH   4  15
ATOM     15  C6  <0> d           2.546   1.466  -0.014  0.00  0.00     0.058 C 
ATOM     16  H8  <0> d           3.037   1.854  -0.907  0.00  0.00     0.083 H 
ATOM     17  H9  <0> d           3.054   1.844   0.873  0.00  0.00     0.083 H 
BRANCH  15  18
ATOM     18  O1  <0> d           2.600   0.038  -0.022  0.00  0.00    -0.395 OA
ATOM     19  H10 <0> d           3.498  -0.321  -0.033  0.00  0.00     0.209 HD
ENDBRANCH  15  18
ENDBRANCH   4  15
TORSDOF 4
