REMARK  1 active torsions:
REMARK  status: ('A' for Active; 'I' for Inactive)
REMARK    1  A    between atoms: C1_1  and  C2_2 
ROOT
ATOM      1  C2  <0> d           0.135   4.040   0.022  0.00  0.00     0.011 A 
ATOM      2  H1  <0> d           0.058   4.647   0.925  0.00  0.00     0.059 H 
ATOM      3  C3  <0> d           1.446   3.240   0.006  0.00  0.00     0.018 A 
ATOM      4  N1  <0> d           1.266   1.789  -0.000  0.00  0.00    -0.275 N 
ATOM      5  C4  <0> d           2.099   0.701  -0.014  0.00  0.00     0.344 A 
ATOM      6  O1  <0> d           3.316   0.734  -0.026  0.00  0.00    -0.245 OA
ATOM      7  N2  <0> d           1.342  -0.410  -0.013  0.00  0.00    -0.226 N 
ATOM      8  H2  <0> d           1.665  -1.325  -0.021  0.00  0.00     0.194 HD
ATOM      9  N3  <0> d           0.002  -0.004   0.002  0.00  0.00    -0.145 NA
ATOM     10  C5  <0> d          -0.015   1.293   0.009  0.00  0.00     0.192 A 
ATOM     11  S1  <0> d          -1.108   2.695   0.033  0.00  0.00    -0.084 SA
ATOM     12  H6  <0> d           2.029   3.513   0.885  0.00  0.00     0.067 H 
ATOM     13  H7  <0> d           2.012   3.522  -0.882  0.00  0.00     0.067 H 
ENDROOT
BRANCH   1  14
ATOM     14  C1  <0> d           0.004   4.907  -1.232  0.00  0.00    -0.062 C 
ATOM     15  H3  <0> d           0.012   4.269  -2.116  0.00  0.00     0.029 H 
ATOM     16  H4  <0> d          -0.933   5.462  -1.193  0.00  0.00     0.029 H 
ATOM     17  H5  <0> d           0.839   5.605  -1.280  0.00  0.00     0.029 H 
ENDBRANCH   1  14
TORSDOF 1
