REMARK  1 active torsions:
REMARK  status: ('A' for Active; 'I' for Inactive)
REMARK    1  A    between atoms: C3_3  and  C4_4 
ROOT
ATOM      1  C1  <0> d          -2.575   1.585  -0.356  0.00  0.00    -0.054 A 
ATOM      2  C2  <0> d          -1.887   2.549  -1.327  0.00  0.00    -0.054 A 
ATOM      3  C3  <0> d          -1.237   2.225   0.020  0.00  0.00     0.009 A 
ATOM      4  H1  <0> d          -2.572   0.526  -0.612  0.00  0.00     0.034 H 
ATOM      5  H2  <0> d          -3.466   1.942   0.159  0.00  0.00     0.034 H 
ATOM      6  H3  <0> d          -2.326   3.539  -1.449  0.00  0.00     0.034 H 
ATOM      7  H4  <0> d          -1.431   2.123  -2.221  0.00  0.00     0.034 H 
ATOM      8  H5  <0> d          -1.248   3.002   0.784  0.00  0.00     0.052 H 
ENDROOT
BRANCH   3   9
ATOM      9  C4  <0> d          -0.016   1.342   0.009  0.00  0.00     0.178 A 
ATOM     10  N3  <0> d           1.234   1.735  -0.000  0.00  0.00    -0.111 NA
ATOM     11  N2  <0> d           1.981   0.685  -0.013  0.00  0.00    -0.021 NA
ATOM     12  N1  <0> d           1.240  -0.367  -0.012  0.00  0.00    -0.021 NA
ATOM     13  N4  <0> d           0.014   0.005   0.002  0.00  0.00    -0.111 NA
ENDBRANCH   3   9
TORSDOF 1
