REMARK  2 active torsions:
REMARK  status: ('A' for Active; 'I' for Inactive)
REMARK    1  A    between atoms: C1_1  and  C2_2 
REMARK    2  A    between atoms: C6_7  and  N1_12 
ROOT
ATOM      1  C2  <0> d          -0.834   1.634  -1.183  0.00  0.00     0.045 C 
ATOM      2  H1  <0> d          -0.848   0.918  -2.004  0.00  0.00     0.084 H 
ATOM      3  C3  <0> d          -0.013   1.086   0.008  0.00  0.00    -0.014 C 
ATOM      4  C4  <0> d          -0.795   1.611   1.197  0.00  0.00    -0.020 A 
ATOM      5  C5  <0> d          -0.476   1.732   2.531  0.00  0.00    -0.049 A 
ATOM      6  C6  <0> d          -1.401   2.267   3.419  0.00  0.00     0.026 A 
ATOM      7  C7  <0> d          -2.644   2.674   2.952  0.00  0.00    -0.055 A 
ATOM      8  C8  <0> d          -2.962   2.547   1.614  0.00  0.00    -0.048 A 
ATOM      9  C9  <0> d          -2.038   2.009   0.721  0.00  0.00     0.075 A 
ATOM     10  O1  <0> d          -2.147   1.790  -0.620  0.00  0.00    -0.345 OA
ATOM     11  H5  <0> d           0.002  -0.004   0.002  0.00  0.00     0.044 H 
ATOM     12  H6  <0> d           1.001   1.487   0.001  0.00  0.00     0.044 H 
ATOM     13  H7  <0> d           0.493   1.414   2.886  0.00  0.00     0.087 H 
ATOM     14  H8  <0> d          -3.366   3.092   3.638  0.00  0.00     0.087 H 
ATOM     15  H9  <0> d          -3.930   2.867   1.258  0.00  0.00     0.087 H 
ENDROOT
BRANCH   1  16
ATOM     16  C1  <0> d          -0.280   2.982  -1.648  0.00  0.00    -0.051 C 
ATOM     17  H2  <0> d           0.757   2.861  -1.962  0.00  0.00     0.030 H 
ATOM     18  H3  <0> d          -0.872   3.349  -2.486  0.00  0.00     0.030 H 
ATOM     19  H4  <0> d          -0.329   3.698  -0.827  0.00  0.00     0.030 H 
ENDBRANCH   1  16
BRANCH   6  20
ATOM     20  N1  <0> d          -1.083   2.392   4.776  0.00  0.00    -0.399 N 
ATOM     21  H10 <0> d          -0.215   2.106   5.099  0.00  0.00     0.156 HD
ATOM     22  H11 <0> d          -1.732   2.766   5.393  0.00  0.00     0.156 HD
ENDBRANCH   6  20
TORSDOF 2
