REMARK  2 active torsions:
REMARK  status: ('A' for Active; 'I' for Inactive)
REMARK    1  A    between atoms: C3_3  and  N2_10 
REMARK    2  A    between atoms: C6_6  and  C7_7 
ROOT
ATOM      1  C7  <0> d          -0.013   1.086   0.008  0.00  0.00     0.038 C 
ATOM      2  C8  <0> d          -0.725   1.573  -1.185  0.00  0.00     0.063 C 
ATOM      3  N1  <0> d          -1.274   1.950  -2.105  0.00  0.00    -0.197 NA
ATOM      4  H5  <0> d           0.002  -0.004   0.002  0.00  0.00     0.062 H 
ATOM      5  H6  <0> d           1.010   1.463   0.000  0.00  0.00     0.062 H 
ENDROOT
BRANCH   1   6
ATOM      6  C6  <0> d          -0.718   1.572   1.248  0.00  0.00    -0.045 A 
ATOM      7  C1  <0> d          -0.358   2.780   1.817  0.00  0.00    -0.074 A 
ATOM      8  C2  <0> d          -1.007   3.231   2.950  0.00  0.00    -0.057 A 
ATOM      9  H1  <0> d           0.427   3.373   1.373  0.00  0.00     0.084 H 
ATOM     10  C3  <0> d          -2.013   2.464   3.524  0.00  0.00     0.025 A 
ATOM     11  H2  <0> d          -0.729   4.176   3.392  0.00  0.00     0.086 H 
ATOM     12  C4  <0> d          -2.368   1.249   2.953  0.00  0.00    -0.057 A 
ATOM     13  C5  <0> d          -1.720   0.806   1.817  0.00  0.00    -0.074 A 
ATOM     14  H3  <0> d          -3.150   0.650   3.397  0.00  0.00     0.086 H 
ATOM     15  H4  <0> d          -1.995  -0.138   1.372  0.00  0.00     0.084 H 
BRANCH  10  16
ATOM     16  N2  <0> d          -2.667   2.915   4.673  0.00  0.00    -0.399 N 
ATOM     17  H7  <0> d          -3.370   2.379   5.073  0.00  0.00     0.156 HD
ATOM     18  H8  <0> d          -2.419   3.764   5.072  0.00  0.00     0.156 HD
ENDBRANCH  10  16
ENDBRANCH   1   6
TORSDOF 2
