REMARK  0 active torsions:
REMARK  status: ('A' for Active; 'I' for Inactive)
ROOT
ATOM      1  C1  <0> d          -0.013   1.086   0.008  0.00  0.00    -0.065 C 
ATOM      2  C2  <0> d          -0.727   1.579  -1.246  0.00  0.00    -0.064 C 
ATOM      3  C3  <0> d          -0.915   3.107  -1.232  0.00  0.00    -0.053 C 
ATOM      4  C4  <0> d          -1.672   3.445   0.031  0.00  0.00     0.036 C 
ATOM      5  H1  <0> d          -2.583   2.850   0.083  0.00  0.00     0.056 H 
ATOM      6  C5  <0> d          -0.742   3.084   1.229  0.00  0.00    -0.021 C 
ATOM      7  H2  <0> d           0.255   3.507   1.104  0.00  0.00     0.044 H 
ATOM      8  C6  <0> d          -0.709   1.570   1.292  0.00  0.00    -0.059 C 
ATOM      9  C7  <0> d          -1.518   3.809   2.335  0.00  0.00     0.033 C 
ATOM     10  O1  <0> d          -1.951   5.048   1.666  0.00  0.00    -0.321 OA
ATOM     11  C8  <0> d          -1.998   4.875   0.321  0.00  0.00     0.263 C 
ATOM     12  O2  <0> d          -2.256   5.726  -0.498  0.00  0.00    -0.265 OA
ATOM     13  H3  <0> d           0.002  -0.004   0.002  0.00  0.00     0.033 H 
ATOM     14  H4  <0> d           1.013   1.454   0.000  0.00  0.00     0.033 H 
ATOM     15  H5  <0> d          -0.141   1.302  -2.121  0.00  0.00     0.033 H 
ATOM     16  H6  <0> d          -1.705   1.102  -1.308  0.00  0.00     0.033 H 
ATOM     17  H7  <0> d           0.057   3.602  -1.227  0.00  0.00     0.034 H 
ATOM     18  H8  <0> d          -1.488   3.420  -2.105  0.00  0.00     0.034 H 
ATOM     19  H9  <0> d          -1.724   1.176   1.336  0.00  0.00     0.033 H 
ATOM     20  H10 <0> d          -0.145   1.247   2.166  0.00  0.00     0.033 H 
ATOM     21  H11 <0> d          -2.378   3.220   2.653  0.00  0.00     0.075 H 
ATOM     22  H12 <0> d          -0.867   4.033   3.180  0.00  0.00     0.075 H 
ENDROOT
TORSDOF 0
