REMARK  4 active torsions:
REMARK  status: ('A' for Active; 'I' for Inactive)
REMARK    1  A    between atoms: C1_1  and  C2_2 
REMARK    2  A    between atoms: C5_6  and  C8_10 
REMARK    3  A    between atoms: C8_10  and  C9_11 
REMARK    4  A    between atoms: C8_10  and  C10_12 
ROOT
ATOM      1  C2  <0> d           0.012  -0.004  -0.011  0.00  0.00    -0.080 C 
ATOM      2  C3  <0> d           0.023  -0.633  -1.180  0.00  0.00    -0.036 C 
ATOM      3  C4  <0> d           0.030  -2.099  -1.240  0.00  0.00     0.154 C 
ATOM      4  O1  <0> d          -0.166  -2.685  -2.284  0.00  0.00    -0.293 OA
ATOM      5  C5  <0> d           0.290  -2.856   0.047  0.00  0.00     0.011 C 
ATOM      6  H1  <0> d           1.355  -2.837   0.279  0.00  0.00     0.052 H 
ATOM      7  C6  <0> d          -0.500  -2.151   1.159  0.00  0.00    -0.051 C 
ATOM      8  C7  <0> d           0.022  -0.720   1.306  0.00  0.00    -0.044 C 
ATOM      9  H5  <0> d           0.026  -0.061  -2.096  0.00  0.00     0.089 H 
ATOM     10  H6  <0> d          -1.558  -2.131   0.898  0.00  0.00     0.034 H 
ATOM     11  H7  <0> d          -0.364  -2.686   2.098  0.00  0.00     0.034 H 
ATOM     12  H8  <0> d           1.042  -0.746   1.692  0.00  0.00     0.039 H 
ATOM     13  H9  <0> d          -0.612  -0.181   2.011  0.00  0.00     0.039 H 
ENDROOT
BRANCH   5  14
ATOM     14  C8  <0> d          -0.186  -4.303  -0.095  0.00  0.00    -0.051 C 
ATOM     15  H10 <0> d           0.280  -4.754  -0.971  0.00  0.00     0.040 H 
BRANCH  14  16
ATOM     16  C9  <0> d           0.205  -5.093   1.155  0.00  0.00    -0.072 C 
ATOM     17  H11 <0> d           1.279  -5.001   1.322  0.00  0.00     0.028 H 
ATOM     18  H12 <0> d          -0.332  -4.698   2.017  0.00  0.00     0.028 H 
ATOM     19  H13 <0> d          -0.052  -6.143   1.016  0.00  0.00     0.028 H 
ENDBRANCH  14  16
BRANCH  14  20
ATOM     20  C10 <0> d          -1.707  -4.326  -0.258  0.00  0.00    -0.072 C 
ATOM     21  H14 <0> d          -1.986  -3.763  -1.149  0.00  0.00     0.028 H 
ATOM     22  H15 <0> d          -2.046  -5.357  -0.359  0.00  0.00     0.028 H 
ATOM     23  H16 <0> d          -2.173  -3.874   0.618  0.00  0.00     0.028 H 
ENDBRANCH  14  20
ENDBRANCH   5  14
BRANCH   1  24
ATOM     24  C1  <0> d          -0.004   1.503  -0.009  0.00  0.00    -0.054 C 
ATOM     25  H2  <0> d           1.019   1.877  -0.009  0.00  0.00     0.033 H 
ATOM     26  H3  <0> d          -0.523   1.862  -0.897  0.00  0.00     0.033 H 
ATOM     27  H4  <0> d          -0.521   1.859   0.883  0.00  0.00     0.033 H 
ENDBRANCH   1  24
TORSDOF 4
