REMARK  0 active torsions:
REMARK  status: ('A' for Active; 'I' for Inactive)
ROOT
ATOM      1  C1  <0> d          -1.405   4.389   0.036  0.00  0.00     0.054 A 
ATOM      2  C2  <0> d          -0.735   3.153   0.025  0.00  0.00     0.109 A 
ATOM      3  C3  <0> d           0.664   3.130   0.012  0.00  0.00     0.136 A 
ATOM      4  C4  <0> d           1.378   4.405   0.011  0.00  0.00     0.314 A 
ATOM      5  O1  <0> d           2.597   4.438  -0.000  0.00  0.00    -0.262 OA
ATOM      6  N1  <0> d           0.656   5.547   0.023  0.00  0.00    -0.105 NA
ATOM      7  N2  <0> d          -0.741   5.509   0.035  0.00  0.00    -0.157 NA
ATOM      8  N3  <0> d           1.043   1.839   0.002  0.00  0.00    -0.344 N 
ATOM      9  C5  <0> d          -0.013   1.076   0.008  0.00  0.00     0.065 A 
ATOM     10  N4  <0> d          -1.136   1.843   0.017  0.00  0.00    -0.240 NA
ATOM     11  H1  <0> d           2.112   1.581  -0.009  0.00  0.00     0.167 HD
ATOM     12  H2  <0> d          -2.485   4.410   0.046  0.00  0.00     0.121 H 
ATOM     13  H3  <0> d          -0.088   0.079   0.007  0.00  0.00     0.143 H 
ENDROOT
TORSDOF 0
