REMARK  2 active torsions:
REMARK  status: ('A' for Active; 'I' for Inactive)
REMARK    1  A    between atoms: C1_1  and  O1_2 
REMARK    2  A    between atoms: O1_2  and  C2_3 
ROOT
ATOM      1  C2  <0> d          -1.975   1.163   1.348  0.00  0.00     0.069 A 
ATOM      2  C3  <0> d          -2.583   0.358   0.380  0.00  0.00    -0.050 A 
ATOM      3  C4  <0> d          -3.875  -0.048   0.518  0.00  0.00    -0.070 A 
ATOM      4  C5  <0> d          -4.611   0.356   1.641  0.00  0.00    -0.023 A 
ATOM      5  C6  <0> d          -5.951  -0.026   1.836  0.00  0.00    -0.055 A 
ATOM      6  C7  <0> d          -6.599   0.408   2.952  0.00  0.00     0.003 A 
ATOM      7  N1  <0> d          -6.003   1.176   3.854  0.00  0.00    -0.272 NA
ATOM      8  C8  <0> d          -4.757   1.570   3.739  0.00  0.00     0.013 A 
ATOM      9  C9  <0> d          -3.999   1.178   2.623  0.00  0.00    -0.006 A 
ATOM     10  C10 <0> d          -2.664   1.574   2.454  0.00  0.00    -0.039 A 
ATOM     11  H4  <0> d          -2.018   0.050  -0.487  0.00  0.00     0.087 H 
ATOM     12  H5  <0> d          -4.332  -0.673  -0.235  0.00  0.00     0.085 H 
ATOM     13  H6  <0> d          -6.455  -0.651   1.114  0.00  0.00     0.087 H 
ATOM     14  H7  <0> d          -7.628   0.118   3.107  0.00  0.00     0.114 H 
ATOM     15  H8  <0> d          -4.315   2.195   4.501  0.00  0.00     0.116 H 
ATOM     16  H9  <0> d          -2.184   2.200   3.193  0.00  0.00     0.089 H 
ENDROOT
BRANCH   1  17
ATOM     17  O1  <0> d          -0.682   1.547   1.184  0.00  0.00    -0.356 OA
BRANCH  17  18
ATOM     18  C1  <0> d          -0.013   1.086   0.008  0.00  0.00     0.010 C 
ATOM     19  H1  <0> d           0.002  -0.004   0.002  0.00  0.00     0.066 H 
ATOM     20  H2  <0> d           1.010   1.463   0.000  0.00  0.00     0.066 H 
ATOM     21  H3  <0> d          -0.540   1.447  -0.875  0.00  0.00     0.066 H 
ENDBRANCH  17  18
ENDBRANCH   1  17
TORSDOF 2
