REMARK  2 active torsions:
REMARK  status: ('A' for Active; 'I' for Inactive)
REMARK    1  A    between atoms: C1_1  and  O1_2 
REMARK    2  A    between atoms: O1_2  and  C2_3 
ROOT
ATOM      1  C2  <0> d           1.897   2.518   1.127  0.00  0.00     0.042 C 
ATOM      2  C3  <0> d           1.401   2.033  -0.000  0.00  0.00    -0.075 C 
ATOM      3  C4  <0> d          -0.019   1.523   0.010  0.00  0.00    -0.048 C 
ATOM      4  C5  <0> d           0.002  -0.004   0.002  0.00  0.00    -0.062 C 
ATOM      5  C6  <0> d           0.802  -0.494   1.235  0.00  0.00    -0.065 C 
ATOM      6  C7  <0> d           0.138   0.097   2.491  0.00  0.00    -0.065 C 
ATOM      7  C8  <0> d           0.981   1.219   3.059  0.00  0.00    -0.060 C 
ATOM      8  C9  <0> d           0.986   2.521   2.326  0.00  0.00    -0.021 C 
ATOM      9  H4  <0> d           1.995   2.002  -0.902  0.00  0.00     0.080 H 
ATOM     10  H5  <0> d          -0.543   1.885  -0.874  0.00  0.00     0.038 H 
ATOM     11  H6  <0> d          -0.526   1.876   0.908  0.00  0.00     0.038 H 
ATOM     12  H7  <0> d          -1.018  -0.384   0.053  0.00  0.00     0.033 H 
ATOM     13  H8  <0> d           0.482  -0.358  -0.910  0.00  0.00     0.033 H 
ATOM     14  H9  <0> d           0.778  -1.583   1.282  0.00  0.00     0.033 H 
ATOM     15  H10 <0> d           1.834  -0.149   1.166  0.00  0.00     0.033 H 
ATOM     16  H11 <0> d          -0.846   0.485   2.228  0.00  0.00     0.033 H 
ATOM     17  H12 <0> d           0.027  -0.685   3.241  0.00  0.00     0.033 H 
ATOM     18  H13 <0> d           0.639   1.410   4.077  0.00  0.00     0.033 H 
ATOM     19  H14 <0> d           2.010   0.865   3.119  0.00  0.00     0.033 H 
ATOM     20  H15 <0> d          -0.029   2.741   1.995  0.00  0.00     0.043 H 
ATOM     21  H16 <0> d           1.309   3.307   3.009  0.00  0.00     0.043 H 
ENDROOT
BRANCH   1  22
ATOM     22  O1  <0> d           3.167   2.990   1.198  0.00  0.00    -0.361 OA
BRANCH  22  23
ATOM     23  C1  <0> d           3.945   2.940   0.001  0.00  0.00     0.010 C 
ATOM     24  H1  <0> d           3.457   3.530  -0.775  0.00  0.00     0.066 H 
ATOM     25  H2  <0> d           4.938   3.347   0.196  0.00  0.00     0.066 H 
ATOM     26  H3  <0> d           4.036   1.906  -0.331  0.00  0.00     0.066 H 
ENDBRANCH  22  23
ENDBRANCH   1  22
TORSDOF 2
