REMARK  2 active torsions:
REMARK  status: ('A' for Active; 'I' for Inactive)
REMARK    1  A    between atoms: C1_1  and  C2_2 
REMARK    2  A    between atoms: C8_9  and  C9_11 
ROOT
ATOM      1  C2  <0> d           4.024   2.019  -0.025  0.00  0.00    -0.060 A 
ATOM      2  C3  <0> d           3.222   3.151  -0.011  0.00  0.00    -0.074 A 
ATOM      3  C4  <0> d           1.848   3.033   0.001  0.00  0.00    -0.047 A 
ATOM      4  C5  <0> d           1.262   1.777  -0.000  0.00  0.00     0.106 A 
ATOM      5  C6  <0> d           2.070   0.630  -0.014  0.00  0.00     0.093 A 
ATOM      6  C7  <0> d           3.459   0.764  -0.027  0.00  0.00    -0.047 A 
ATOM      7  N1  <0> d           1.226  -0.438  -0.012  0.00  0.00    -0.226 NA
ATOM      8  C8  <0> d           0.002  -0.004   0.002  0.00  0.00     0.142 A 
ATOM      9  O1  <0> d          -0.016   1.338   0.009  0.00  0.00    -0.294 OA
ATOM     10  H4  <0> d           3.676   4.130  -0.010  0.00  0.00     0.084 H 
ATOM     11  H5  <0> d           1.230   3.919   0.011  0.00  0.00     0.087 H 
ATOM     12  H6  <0> d           4.088  -0.114  -0.038  0.00  0.00     0.088 H 
ENDROOT
BRANCH   1  13
ATOM     13  C1  <0> d           5.524   2.165  -0.039  0.00  0.00    -0.051 C 
ATOM     14  H1  <0> d           5.876   2.206  -1.070  0.00  0.00     0.033 H 
ATOM     15  H2  <0> d           5.805   3.083   0.477  0.00  0.00     0.033 H 
ATOM     16  H3  <0> d           5.977   1.312   0.466  0.00  0.00     0.033 H 
ENDBRANCH   1  13
BRANCH   8  17
ATOM     17  C9  <0> d          -1.223  -0.882   0.009  0.00  0.00    -0.015 C 
ATOM     18  H7  <0> d          -2.117  -0.259   0.021  0.00  0.00     0.038 H 
ATOM     19  H8  <0> d          -1.227  -1.507  -0.884  0.00  0.00     0.038 H 
ATOM     20  H9  <0> d          -1.210  -1.516   0.896  0.00  0.00     0.038 H 
ENDBRANCH   8  17
TORSDOF 2
