REMARK  8 active torsions:
REMARK  status: ('A' for Active; 'I' for Inactive)
REMARK    1  A    between atoms: C1_1  and  C2_2 
REMARK    2  A    between atoms: C2_2  and  O1_3 
REMARK    3  A    between atoms: O1_3  and  C3_4 
REMARK    4  A    between atoms: C3_4  and  C4_5 
REMARK    5  A    between atoms: C3_4  and  O2_8 
REMARK    6  A    between atoms: C5_6  and  C6_7 
REMARK    7  A    between atoms: O2_8  and  C7_9 
REMARK    8  A    between atoms: C7_9  and  C8_10 
ROOT
ATOM      1  C3  <0> d          -0.012   0.155  -0.297  0.00  0.00     0.148 C 
ATOM      2  H6  <0> d           0.524   0.046  -1.240  0.00  0.00     0.136 H 
ENDROOT
BRANCH   1   3
ATOM      3  O1  <0> d          -0.112   1.541   0.036  0.00  0.00    -0.358 OA
BRANCH   3   4
ATOM      4  C2  <0> d           1.145   2.219   0.087  0.00  0.00     0.020 C 
ATOM      5  H4  <0> d           1.734   1.829   0.917  0.00  0.00     0.073 H 
ATOM      6  H5  <0> d           1.683   2.057  -0.847  0.00  0.00     0.073 H 
BRANCH   4   7
ATOM      7  C1  <0> d           0.909   3.717   0.288  0.00  0.00    -0.056 C 
ATOM      8  H1  <0> d           0.319   4.106  -0.542  0.00  0.00     0.030 H 
ATOM      9  H2  <0> d           0.371   3.878   1.222  0.00  0.00     0.030 H 
ATOM     10  H3  <0> d           1.867   4.234   0.327  0.00  0.00     0.030 H 
ENDBRANCH   4   7
ENDBRANCH   3   4
ENDBRANCH   1   3
BRANCH   1  11
ATOM     11  C4  <0> d          -1.394  -0.430  -0.435  0.00  0.00    -0.055 C 
ATOM     12  C5  <0> d          -1.771  -0.960  -1.573  0.00  0.00    -0.106 C 
ATOM     13  H8  <0> d          -1.091  -0.978  -2.412  0.00  0.00     0.075 H 
ATOM     14  H7  <0> d          -2.074  -0.412   0.403  0.00  0.00     0.083 H 
BRANCH  12  15
ATOM     15  C6  <0> d          -3.153  -1.544  -1.711  0.00  0.00    -0.060 C 
ATOM     16  H9  <0> d          -3.280  -2.351  -0.990  0.00  0.00     0.032 H 
ATOM     17  H10 <0> d          -3.896  -0.769  -1.523  0.00  0.00     0.032 H 
ATOM     18  H11 <0> d          -3.283  -1.935  -2.720  0.00  0.00     0.032 H 
ENDBRANCH  12  15
ENDBRANCH   1  11
BRANCH   1  19
ATOM     19  O2  <0> d           0.696  -0.534   0.736  0.00  0.00    -0.358 OA
BRANCH  19  20
ATOM     20  C7  <0> d           2.114  -0.537   0.566  0.00  0.00     0.020 C 
ATOM     21  H12 <0> d           2.372  -1.111  -0.325  0.00  0.00     0.073 H 
ATOM     22  H13 <0> d           2.469   0.487   0.453  0.00  0.00     0.073 H 
BRANCH  20  23
ATOM     23  C8  <0> d           2.773  -1.173   1.791  0.00  0.00    -0.056 C 
ATOM     24  H14 <0> d           3.856  -1.176   1.661  0.00  0.00     0.030 H 
ATOM     25  H15 <0> d           2.515  -0.600   2.681  0.00  0.00     0.030 H 
ATOM     26  H16 <0> d           2.419  -2.198   1.904  0.00  0.00     0.030 H 
ENDBRANCH  20  23
ENDBRANCH  19  20
ENDBRANCH   1  19
TORSDOF 8
