REMARK  8 active torsions:
REMARK  status: ('A' for Active; 'I' for Inactive)
REMARK    1  A    between atoms: C1_1  and  C2_2 
REMARK    2  A    between atoms: C2_2  and  C3_3 
REMARK    3  A    between atoms: C3_3  and  O1_4 
REMARK    4  A    between atoms: O1_4  and  C4_5 
REMARK    5  A    between atoms: C4_5  and  C5_6 
REMARK    6  A    between atoms: C5_6  and  C6_8 
REMARK    7  A    between atoms: C5_6  and  O3_10 
REMARK    8  A    between atoms: C6_8  and  O2_9 
ROOT
ATOM      1  C4  <0> d           2.527   3.727  -0.128  0.00  0.00     0.045 C 
ATOM      2  H9  <0> d           3.127   3.487   0.751  0.00  0.00     0.078 H 
ATOM      3  H10 <0> d           3.021   3.341  -1.020  0.00  0.00     0.078 H 
ENDROOT
BRANCH   1   4
ATOM      4  O1  <0> d           2.386   5.144  -0.236  0.00  0.00    -0.389 OA
BRANCH   4   5
ATOM      5  C3  <0> d           3.625   5.844  -0.368  0.00  0.00     0.019 C 
ATOM      6  H7  <0> d           4.247   5.648   0.506  0.00  0.00     0.074 H 
ATOM      7  H8  <0> d           4.141   5.503  -1.265  0.00  0.00     0.074 H 
BRANCH   5   8
ATOM      8  C2  <0> d           3.354   7.346  -0.475  0.00  0.00    -0.049 C 
ATOM      9  H5  <0> d           2.732   7.541  -1.348  0.00  0.00     0.035 H 
ATOM     10  H6  <0> d           2.838   7.687   0.422  0.00  0.00     0.035 H 
BRANCH   8  11
ATOM     11  C1  <0> d           4.681   8.094  -0.616  0.00  0.00    -0.075 C 
ATOM     12  H2  <0> d           5.303   7.899   0.258  0.00  0.00     0.027 H 
ATOM     13  H3  <0> d           5.197   7.753  -1.513  0.00  0.00     0.027 H 
ATOM     14  H4  <0> d           4.488   9.165  -0.692  0.00  0.00     0.027 H 
ENDBRANCH   8  11
ENDBRANCH   5   8
ENDBRANCH   4   5
ENDBRANCH   1   4
BRANCH   1  15
ATOM     15  C5  <0> d           1.145   3.085   0.008  0.00  0.00     0.076 C 
ATOM     16  H1  <0> d           0.516   3.397  -0.827  0.00  0.00     0.089 H 
BRANCH  15  17
ATOM     17  C6  <0> d           1.286   1.562  -0.002  0.00  0.00     0.042 C 
ATOM     18  H11 <0> d           1.840   1.243   0.881  0.00  0.00     0.078 H 
ATOM     19  H12 <0> d           1.823   1.252  -0.899  0.00  0.00     0.078 H 
BRANCH  17  20
ATOM     20  O2  <0> d          -0.011   0.963   0.007  0.00  0.00    -0.398 OA
ATOM     21  H13 <0> d           0.002  -0.004   0.002  0.00  0.00     0.209 HD
ENDBRANCH  17  20
ENDBRANCH  15  17
BRANCH  15  22
ATOM     22  O3  <0> d           0.546   3.500   1.237  0.00  0.00    -0.391 OA
ATOM     23  H14 <0> d           1.052   3.256   2.023  0.00  0.00     0.210 HD
ENDBRANCH  15  22
ENDBRANCH   1  15
TORSDOF 8
