REMARK  5 active torsions:
REMARK  status: ('A' for Active; 'I' for Inactive)
REMARK    1  A    between atoms: C1_1  and  C2_2 
REMARK    2  A    between atoms: C2_2  and  O1_3 
REMARK    3  A    between atoms: O1_3  and  C3_4 
REMARK    4  A    between atoms: C3_4  and  C4_6 
REMARK    5  A    between atoms: C6_9  and  C7_11 
ROOT
ATOM      1  C4  <0> d          -0.013   1.086   0.008  0.00  0.00     0.044 A 
ATOM      2  H1  <0> d           0.002  -0.004   0.002  0.00  0.00     0.057 H 
ATOM      3  C5  <0> d          -1.136   1.773   0.788  0.00  0.00    -0.039 A 
ATOM      4  C6  <0> d          -1.150   1.781  -0.743  0.00  0.00     0.043 A 
ATOM      5  H2  <0> d          -0.922   2.722  -1.243  0.00  0.00     0.058 H 
ATOM      6  H8  <0> d          -1.859   1.135   1.295  0.00  0.00     0.035 H 
ATOM      7  H9  <0> d          -0.897   2.708   1.294  0.00  0.00     0.035 H 
ENDROOT
BRANCH   1   8
ATOM      8  C3  <0> d           1.338   1.754  -0.001  0.00  0.00     0.263 C 
ATOM      9  O2  <0> d           1.491   2.799  -0.589  0.00  0.00    -0.265 OA
BRANCH   8  10
ATOM     10  O1  <0> d           2.371   1.189   0.643  0.00  0.00    -0.322 OA
BRANCH  10  11
ATOM     11  C2  <0> d           3.642   1.888   0.592  0.00  0.00     0.025 C 
ATOM     12  H6  <0> d           3.962   1.986  -0.446  0.00  0.00     0.074 H 
ATOM     13  H7  <0> d           3.530   2.879   1.031  0.00  0.00     0.074 H 
BRANCH  11  14
ATOM     14  C1  <0> d           4.691   1.098   1.376  0.00  0.00    -0.056 C 
ATOM     15  H3  <0> d           4.372   1.001   2.414  0.00  0.00     0.030 H 
ATOM     16  H4  <0> d           4.804   0.107   0.937  0.00  0.00     0.030 H 
ATOM     17  H5  <0> d           5.646   1.623   1.338  0.00  0.00     0.030 H 
ENDBRANCH  11  14
ENDBRANCH  10  11
ENDBRANCH   8  10
ENDBRANCH   1   8
BRANCH   4  18
ATOM     18  C7  <0> d          -2.164   0.907  -1.435  0.00  0.00     0.177 C 
ATOM     19  O3  <0> d          -2.060  -0.296  -1.383  0.00  0.00    -0.648 OA
ATOM     20  O4  <0> d          -3.183   1.464  -2.108  0.00  0.00    -0.648 OA
ENDBRANCH   4  18
TORSDOF 5
