REMARK  4 active torsions:
REMARK  status: ('A' for Active; 'I' for Inactive)
REMARK    1  A    between atoms: C1_1  and  C2_2 
REMARK    2  A    between atoms: C2_2  and  N1_3 
REMARK    3  A    between atoms: C5_6  and  C6_8 
REMARK    4  A    between atoms: C6_8  and  C7_10 
ROOT
ATOM      1  N1  <0> d          -0.654   3.160   0.025  0.00  0.00    -0.281 N 
ATOM      2  C3  <0> d          -1.101   1.880   0.017  0.00  0.00     0.001 A 
ATOM      3  C4  <0> d          -0.013   1.076   0.008  0.00  0.00    -0.033 A 
ATOM      4  C5  <0> d           1.104   1.949   0.002  0.00  0.00     0.123 A 
ATOM      5  N2  <0> d           0.631   3.181   0.013  0.00  0.00    -0.169 NA
ATOM      6  H6  <0> d          -2.133   1.561   0.019  0.00  0.00     0.114 H 
ATOM      7  H7  <0> d           0.002  -0.004   0.002  0.00  0.00     0.089 H 
ENDROOT
BRANCH   1   8
ATOM      8  C2  <0> d          -1.511   4.348   0.039  0.00  0.00     0.013 C 
ATOM      9  H4  <0> d          -1.381   4.901  -0.891  0.00  0.00     0.066 H 
ATOM     10  H5  <0> d          -2.553   4.042   0.137  0.00  0.00     0.066 H 
BRANCH   8  11
ATOM     11  C1  <0> d          -1.129   5.240   1.222  0.00  0.00    -0.059 C 
ATOM     12  H1  <0> d          -1.259   4.686   2.152  0.00  0.00     0.029 H 
ATOM     13  H2  <0> d          -0.087   5.545   1.124  0.00  0.00     0.029 H 
ATOM     14  H3  <0> d          -1.767   6.123   1.232  0.00  0.00     0.029 H 
ENDBRANCH   8  11
ENDBRANCH   1   8
BRANCH   4  15
ATOM     15  C6  <0> d           2.521   1.556  -0.014  0.00  0.00     0.175 C 
ATOM     16  O1  <0> d           2.824   0.382  -0.024  0.00  0.00    -0.291 OA
BRANCH  15  17
ATOM     17  C7  <0> d           3.595   2.612  -0.019  0.00  0.00    -0.015 C 
ATOM     18  H8  <0> d           3.511   3.177   0.802  0.00  0.00     0.038 H 
ATOM     19  H9  <0> d           4.575   2.134  -0.031  0.00  0.00     0.038 H 
ATOM     20  H10 <0> d           3.485   3.239  -0.904  0.00  0.00     0.038 H 
ENDBRANCH  15  17
ENDBRANCH   4  15
TORSDOF 4
