REMARK  0 active torsions:
REMARK  status: ('A' for Active; 'I' for Inactive)
ROOT
ATOM      1  C1  <0> d           1.175   2.054   0.002  0.00  0.00    -0.045 A 
ATOM      2  C2  <0> d           1.153   3.436   0.009  0.00  0.00    -0.072 A 
ATOM      3  C3  <0> d          -0.051   4.112   0.025  0.00  0.00    -0.030 A 
ATOM      4  C4  <0> d          -1.250   3.415   0.032  0.00  0.00     0.037 A 
ATOM      5  C5  <0> d          -1.222   2.019   0.019  0.00  0.00    -0.020 A 
ATOM      6  C6  <0> d          -0.016   1.347   0.009  0.00  0.00     0.118 A 
ATOM      7  F1  <0> d           0.002  -0.004   0.002  0.00  0.00    -0.206 F 
ATOM      8  N1  <0> d          -2.347   4.277   0.048  0.00  0.00    -0.389 N 
ATOM      9  C7  <0> d          -1.892   5.670   0.051  0.00  0.00    -0.004 A 
ATOM     10  C8  <0> d          -0.357   5.593   0.036  0.00  0.00    -0.024 A 
ATOM     11  H1  <0> d           2.117   1.527  -0.010  0.00  0.00     0.088 H 
ATOM     12  H2  <0> d           2.081   3.989   0.003  0.00  0.00     0.084 H 
ATOM     13  H3  <0> d          -2.148   1.463   0.020  0.00  0.00     0.091 H 
ATOM     14  H4  <0> d          -3.275   3.996   0.056  0.00  0.00     0.159 HD
ATOM     15  H5  <0> d          -2.254   6.188  -0.837  0.00  0.00     0.064 H 
ATOM     16  H6  <0> d          -2.238   6.178   0.952  0.00  0.00     0.064 H 
ATOM     17  H7  <0> d           0.057   6.060   0.930  0.00  0.00     0.042 H 
ATOM     18  H8  <0> d           0.039   6.070  -0.861  0.00  0.00     0.042 H 
ENDROOT
TORSDOF 0
