REMARK  5 active torsions:
REMARK  status: ('A' for Active; 'I' for Inactive)
REMARK    1  A    between atoms: C1_1  and  C2_2 
REMARK    2  A    between atoms: C2_2  and  O1_3 
REMARK    3  A    between atoms: O1_3  and  C3_4 
REMARK    4  A    between atoms: C3_4  and  C4_6 
REMARK    5  A    between atoms: C3_4  and  O2_10 
ROOT
ATOM      1  O1  <0> d          -0.682   1.547   1.184  0.00  0.00    -0.354 OA
ENDROOT
BRANCH   1   2
ATOM      2  C2  <0> d          -0.013   1.086   0.008  0.00  0.00     0.020 C 
ATOM      3  H5  <0> d           0.002  -0.004   0.002  0.00  0.00     0.073 H 
ATOM      4  H6  <0> d           1.010   1.463   0.000  0.00  0.00     0.073 H 
BRANCH   2   5
ATOM      5  C1  <0> d          -0.753   1.593  -1.232  0.00  0.00    -0.056 C 
ATOM      6  H2  <0> d          -0.767   2.683  -1.226  0.00  0.00     0.030 H 
ATOM      7  H3  <0> d          -0.242   1.241  -2.128  0.00  0.00     0.030 H 
ATOM      8  H4  <0> d          -1.775   1.215  -1.224  0.00  0.00     0.030 H 
ENDBRANCH   2   5
ENDBRANCH   1   2
BRANCH   1   9
ATOM      9  C3  <0> d          -0.068   1.127   2.404  0.00  0.00     0.223 C 
ATOM     10  H1  <0> d           0.107   0.051   2.371  0.00  0.00     0.143 H 
BRANCH   9  11
ATOM     11  C4  <0> d          -0.990   1.458   3.579  0.00  0.00     0.437 C 
ATOM     12  F1  <0> d          -2.210   0.791   3.417  0.00  0.00    -0.166 F 
ATOM     13  F2  <0> d          -0.389   1.046   4.774  0.00  0.00    -0.166 F 
ATOM     14  F3  <0> d          -1.215   2.838   3.621  0.00  0.00    -0.166 F 
ENDBRANCH   9  11
BRANCH   9  15
ATOM     15  O2  <0> d           1.178   1.807   2.570  0.00  0.00    -0.364 OA
ATOM     16  H7  <0> d           1.098   2.770   2.607  0.00  0.00     0.213 HD
ENDBRANCH   9  15
ENDBRANCH   1   9
TORSDOF 5
