REMARK  2 active torsions:
REMARK  status: ('A' for Active; 'I' for Inactive)
REMARK    1  A    between atoms: C1_1  and  C2_2 
REMARK    2  A    between atoms: C2_2  and  N1_3 
ROOT
ATOM      1  N1  <0> d          -0.698   1.558   1.213  0.00  0.00    -0.263 N 
ATOM      2  C3  <0> d          -1.156   0.804   2.228  0.00  0.00     0.084 A 
ATOM      3  N2  <0> d          -1.704   1.600   3.110  0.00  0.00    -0.234 NA
ATOM      4  C4  <0> d          -1.616   2.863   2.696  0.00  0.00     0.107 A 
ATOM      5  N3  <0> d          -1.003   2.889   1.541  0.00  0.00    -0.165 NA
ATOM      6  H6  <0> d          -1.084  -0.271   2.302  0.00  0.00     0.146 H 
ATOM      7  H7  <0> d          -1.986   3.726   3.229  0.00  0.00     0.149 H 
ENDROOT
BRANCH   1   8
ATOM      8  C2  <0> d          -0.013   1.086   0.008  0.00  0.00     0.015 C 
ATOM      9  H4  <0> d           0.002  -0.014   0.002  0.00  0.00     0.066 H 
ATOM     10  H5  <0> d           1.019   1.466   0.000  0.00  0.00     0.066 H 
BRANCH   8  11
ATOM     11  C1  <0> d          -0.753   1.593  -1.232  0.00  0.00    -0.059 C 
ATOM     12  H1  <0> d          -0.238   1.238  -2.136  0.00  0.00     0.029 H 
ATOM     13  H2  <0> d          -0.767   2.693  -1.225  0.00  0.00     0.029 H 
ATOM     14  H3  <0> d          -1.785   1.212  -1.224  0.00  0.00     0.029 H 
ENDBRANCH   8  11
ENDBRANCH   1   8
TORSDOF 2
