REMARK  0 active torsions:
REMARK  status: ('A' for Active; 'I' for Inactive)
ROOT
ATOM      1  C1  <0> d           0.617   5.689   0.024  0.00  0.00    -0.080 A 
ATOM      2  C2  <0> d          -0.767   5.670   0.036  0.00  0.00    -0.080 A 
ATOM      3  C3  <0> d          -1.446   4.467   0.037  0.00  0.00    -0.047 A 
ATOM      4  C4  <0> d          -0.739   3.275   0.025  0.00  0.00     0.115 A 
ATOM      5  C5  <0> d           0.654   3.294   0.013  0.00  0.00     0.115 A 
ATOM      6  C6  <0> d           1.328   4.505   0.012  0.00  0.00    -0.047 A 
ATOM      7  O1  <0> d           1.070   2.003   0.003  0.00  0.00    -0.252 OA
ATOM      8  C7  <0> d          -0.014   1.211   0.009  0.00  0.00     0.417 A 
ATOM      9  O2  <0> d           0.002  -0.004   0.002  0.00  0.00    -0.229 OA
ATOM     10  O3  <0> d          -1.120   1.973   0.018  0.00  0.00    -0.252 OA
ATOM     11  H1  <0> d           1.142   6.633   0.024  0.00  0.00     0.083 H 
ATOM     12  H2  <0> d          -1.318   6.599   0.046  0.00  0.00     0.083 H 
ATOM     13  H3  <0> d          -2.526   4.455   0.047  0.00  0.00     0.087 H 
ATOM     14  H4  <0> d           2.408   4.523   0.003  0.00  0.00     0.087 H 
ENDROOT
TORSDOF 0
