REMARK  4 active torsions:
REMARK  status: ('A' for Active; 'I' for Inactive)
REMARK    1  A    between atoms: C1_1  and  C2_2 
REMARK    2  A    between atoms: C3_4  and  C5_8 
REMARK    3  A    between atoms: C5_8  and  C6_9 
REMARK    4  A    between atoms: C5_8  and  C7_10 
ROOT
ATOM      1  C2  <0> d           1.168  -0.394  -0.546  0.00  0.00     0.131 C 
ATOM      2  N1  <0> d           2.065   0.528  -0.585  0.00  0.00    -0.263 NA
ATOM      3  C3  <0> d           1.497   1.760  -0.003  0.00  0.00     0.058 C 
ATOM      4  H1  <0> d           1.870   1.920   1.009  0.00  0.00     0.079 H 
ATOM      5  C4  <0> d          -0.018   1.438   0.010  0.00  0.00     0.048 C 
ATOM      6  O1  <0> d           0.002  -0.004   0.002  0.00  0.00    -0.336 OA
ATOM      7  H5  <0> d          -0.508   1.829  -0.881  0.00  0.00     0.078 H 
ATOM      8  H6  <0> d          -0.491   1.819   0.915  0.00  0.00     0.078 H 
ENDROOT
BRANCH   3   9
ATOM      9  C5  <0> d           1.792   2.970  -0.891  0.00  0.00    -0.037 C 
ATOM     10  H7  <0> d           1.253   3.839  -0.512  0.00  0.00     0.042 H 
BRANCH   9  11
ATOM     11  C6  <0> d           3.295   3.257  -0.879  0.00  0.00    -0.071 C 
ATOM     12  H8  <0> d           3.505   4.120  -1.512  0.00  0.00     0.028 H 
ATOM     13  H9  <0> d           3.617   3.468   0.141  0.00  0.00     0.028 H 
ATOM     14  H10 <0> d           3.834   2.389  -1.258  0.00  0.00     0.028 H 
ENDBRANCH   9  11
BRANCH   9  15
ATOM     15  C7  <0> d           1.341   2.675  -2.322  0.00  0.00    -0.071 C 
ATOM     16  H11 <0> d           0.270   2.470  -2.331  0.00  0.00     0.028 H 
ATOM     17  H12 <0> d           1.551   3.537  -2.955  0.00  0.00     0.028 H 
ATOM     18  H13 <0> d           1.879   1.806  -2.701  0.00  0.00     0.028 H 
ENDBRANCH   9  15
ENDBRANCH   3   9
BRANCH   1  19
ATOM     19  C1  <0> d           1.403  -1.788  -1.068  0.00  0.00    -0.016 C 
ATOM     20  H2  <0> d           0.502  -2.385  -0.927  0.00  0.00     0.038 H 
ATOM     21  H3  <0> d           1.645  -1.742  -2.130  0.00  0.00     0.038 H 
ATOM     22  H4  <0> d           2.230  -2.244  -0.526  0.00  0.00     0.038 H 
ENDBRANCH   1  19
TORSDOF 4
