REMARK  2 active torsions:
REMARK  status: ('A' for Active; 'I' for Inactive)
REMARK    1  A    between atoms: C5_5  and  C9_9 
REMARK    2  A    between atoms: C9_9  and  O1_10 
ROOT
ATOM      1  C1  <0> d          -0.016   1.310   0.009  0.00  0.00    -0.082 A 
ATOM      2  C2  <0> d           1.216   2.107   0.002  0.00  0.00    -0.082 A 
ATOM      3  C3  <0> d           2.407   1.554  -0.013  0.00  0.00    -0.072 A 
ATOM      4  C4  <0> d           2.532   0.085  -0.022  0.00  0.00    -0.018 A 
ATOM      5  C5  <0> d           3.244  -1.017  -0.035  0.00  0.00    -0.023 A 
ATOM      6  C6  <0> d           2.006  -1.818  -0.027  0.00  0.00    -0.063 A 
ATOM      7  C7  <0> d           1.291  -0.719  -0.014  0.00  0.00    -0.025 A 
ATOM      8  C8  <0> d           0.002  -0.004   0.002  0.00  0.00    -0.072 A 
ATOM      9  H1  <0> d          -0.968   1.819   0.026  0.00  0.00     0.083 H 
ATOM     10  H2  <0> d           1.140   3.185   0.008  0.00  0.00     0.083 H 
ATOM     11  H3  <0> d           3.292   2.173  -0.019  0.00  0.00     0.084 H 
ATOM     12  H4  <0> d           1.782  -2.875  -0.031  0.00  0.00     0.085 H 
ATOM     13  H5  <0> d          -0.925  -0.558   0.008  0.00  0.00     0.084 H 
ENDROOT
BRANCH   5  14
ATOM     14  C9  <0> d           4.717  -1.333  -0.052  0.00  0.00     0.041 C 
ATOM     15  H6  <0> d           4.889  -2.229  -0.648  0.00  0.00     0.081 H 
ATOM     16  H7  <0> d           5.263  -0.496  -0.487  0.00  0.00     0.081 H 
BRANCH  14  17
ATOM     17  O1  <0> d           5.172  -1.555   1.285  0.00  0.00    -0.396 OA
ATOM     18  H8  <0> d           6.113  -1.764   1.350  0.00  0.00     0.209 HD
ENDBRANCH  14  17
ENDBRANCH   5  14
TORSDOF 2
