REMARK  1 active torsions:
REMARK  status: ('A' for Active; 'I' for Inactive)
REMARK    1  A    between atoms: C2_2  and  C3_3 
ROOT
ATOM      1  C1  <0> d           3.489   0.590  -0.027  0.00  0.00    -0.149 C 
ATOM      2  C2  <0> d           2.450   1.136  -0.015  0.00  0.00    -0.075 C 
ATOM      3  H1  <0> d           4.418   0.101  -0.038  0.00  0.00     0.166 H 
ENDROOT
BRANCH   2   4
ATOM      4  C3  <0> d           1.183   1.803   0.000  0.00  0.00     0.051 A 
ATOM      5  C6  <0> d           1.105   3.200   0.009  0.00  0.00     0.023 A 
ATOM      6  N2  <0> d          -0.086   3.774   0.023  0.00  0.00    -0.253 NA
ATOM      7  H4  <0> d           2.003   3.800   0.003  0.00  0.00     0.117 H 
ATOM      8  C5  <0> d          -1.188   3.050   0.030  0.00  0.00     0.086 A 
ATOM      9  N1  <0> d          -1.160   1.732   0.017  0.00  0.00    -0.253 NA
ATOM     10  H3  <0> d          -2.143   3.553   0.042  0.00  0.00     0.146 H 
ATOM     11  C4  <0> d          -0.013   1.076   0.008  0.00  0.00     0.023 A 
ATOM     12  H2  <0> d           0.002  -0.004   0.002  0.00  0.00     0.117 H 
ENDBRANCH   2   4
TORSDOF 1
