REMARK  2 active torsions:
REMARK  status: ('A' for Active; 'I' for Inactive)
REMARK    1  A    between atoms: C1_1  and  N1_2 
REMARK       I    between atoms: N1_2  and  C2_3 
REMARK    2  A    between atoms: C2_3  and  C3_5 
ROOT
ATOM      1  C3  <0> d          -1.136  -2.172   0.001  0.00  0.00     0.032 A 
ATOM      2  C4  <0> d           0.081  -2.857  -0.008  0.00  0.00    -0.068 A 
ATOM      3  C5  <0> d           0.092  -4.236  -0.015  0.00  0.00    -0.082 A 
ATOM      4  C6  <0> d          -1.098  -4.941  -0.013  0.00  0.00    -0.083 A 
ATOM      5  C7  <0> d          -2.307  -4.269  -0.005  0.00  0.00    -0.082 A 
ATOM      6  C8  <0> d          -2.333  -2.889   0.009  0.00  0.00    -0.068 A 
ATOM      7  H5  <0> d           1.011  -2.307  -0.010  0.00  0.00     0.085 H 
ATOM      8  H6  <0> d           1.033  -4.767  -0.023  0.00  0.00     0.083 H 
ATOM      9  H7  <0> d          -1.084  -6.021  -0.019  0.00  0.00     0.083 H 
ATOM     10  H8  <0> d          -3.233  -4.825  -0.004  0.00  0.00     0.083 H 
ATOM     11  H9  <0> d          -3.278  -2.366   0.021  0.00  0.00     0.085 H 
ENDROOT
BRANCH   1  12
ATOM     12  C2  <0> d          -1.156  -0.694   0.009  0.00  0.00     0.251 C 
ATOM     13  N1  <0> d           0.002  -0.004   0.002  0.00  0.00    -0.361 N 
ATOM     14  H4  <0> d           0.849  -0.478  -0.009  0.00  0.00     0.162 HD
ATOM     15  O1  <0> d          -2.217  -0.100   0.023  0.00  0.00    -0.268 OA
BRANCH  13  16
ATOM     16  C1  <0> d          -0.018   1.461   0.010  0.00  0.00    -0.018 C 
ATOM     17  H1  <0> d           1.005   1.838   0.002  0.00  0.00     0.056 H 
ATOM     18  H2  <0> d          -0.545   1.822  -0.873  0.00  0.00     0.056 H 
ATOM     19  H3  <0> d          -0.528   1.812   0.907  0.00  0.00     0.056 H 
ENDBRANCH  13  16
ENDBRANCH   1  12
TORSDOF 2
