REMARK  1 active torsions:
REMARK  status: ('A' for Active; 'I' for Inactive)
REMARK    1  A    between atoms: C3_3  and  C5_7 
ROOT
ATOM      1  C1  <0> d          -0.016   1.346   0.009  0.00  0.00    -0.066 A 
ATOM      2  C2  <0> d           1.316   1.791  -0.001  0.00  0.00    -0.054 A 
ATOM      3  C3  <0> d           2.113   0.686  -0.014  0.00  0.00     0.062 A 
ATOM      4  N1  <0> d           1.301  -0.419  -0.013  0.00  0.00    -0.364 N 
ATOM      5  H1  <0> d           1.601  -1.341  -0.020  0.00  0.00     0.165 HD
ATOM      6  C4  <0> d           0.002  -0.004   0.002  0.00  0.00    -0.022 A 
ATOM      7  H3  <0> d          -0.897   1.971   0.025  0.00  0.00     0.085 H 
ATOM      8  H4  <0> d           1.648   2.819   0.002  0.00  0.00     0.087 H 
ATOM      9  H5  <0> d          -0.866  -0.647   0.007  0.00  0.00     0.111 H 
ENDROOT
BRANCH   3  10
ATOM     10  C5  <0> d           3.592   0.680  -0.029  0.00  0.00     0.104 A 
ATOM     11  N3  <0> d           4.373   1.742  -0.032  0.00  0.00    -0.173 NA
ATOM     12  N2  <0> d           5.703   1.304  -0.045  0.00  0.00    -0.289 N 
ATOM     13  C7  <0> d           5.702  -0.047  -0.058  0.00  0.00    -0.002 A 
ATOM     14  H2  <0> d           6.489   1.872  -0.048  0.00  0.00     0.188 HD
ATOM     15  C6  <0> d           4.417  -0.464  -0.049  0.00  0.00    -0.035 A 
ATOM     16  H7  <0> d           6.575  -0.682  -0.073  0.00  0.00     0.113 H 
ATOM     17  H6  <0> d           4.082  -1.490  -0.056  0.00  0.00     0.089 H 
ENDBRANCH   3  10
TORSDOF 1
