REMARK  1 active torsions:
REMARK  status: ('A' for Active; 'I' for Inactive)
REMARK    1  A    between atoms: N3_9  and  N4_10 
ROOT
ATOM      1  C1  <0> d          -0.014   1.211   0.009  0.00  0.00     0.359 A 
ATOM      2  O1  <0> d           0.002  -0.004   0.002  0.00  0.00    -0.243 OA
ATOM      3  N1  <0> d           1.068   2.015   0.003  0.00  0.00    -0.246 N 
ATOM      4  H1  <0> d           1.996   1.733  -0.007  0.00  0.00     0.192 HD
ATOM      5  N2  <0> d           0.599   3.338   0.014  0.00  0.00    -0.246 N 
ATOM      6  H2  <0> d           1.141   4.142   0.014  0.00  0.00     0.192 HD
ATOM      7  C2  <0> d          -0.749   3.279   0.027  0.00  0.00     0.359 A 
ATOM      8  O2  <0> d          -1.502   4.232   0.039  0.00  0.00    -0.243 OA
ATOM      9  N3  <0> d          -1.116   1.984   0.018  0.00  0.00    -0.176 N 
ENDROOT
BRANCH   9  10
ATOM     10  N4  <0> d          -2.403   1.527   0.020  0.00  0.00    -0.234 NA
ATOM     11  H3  <0> d          -3.059   2.293   0.027  0.00  0.00     0.144 HD
ATOM     12  H4  <0> d          -2.571   0.915  -0.765  0.00  0.00     0.144 HD
ENDBRANCH   9  10
TORSDOF 1
