REMARK  3 active torsions:
REMARK  status: ('A' for Active; 'I' for Inactive)
REMARK    1  A    between atoms: C1_1  and  N1_2 
REMARK    2  A    between atoms: N1_2  and  C2_3 
REMARK       I    between atoms: N1_2  and  C3_4 
REMARK    3  A    between atoms: C3_4  and  C4_6 
ROOT
ATOM      1  N1  <0> d           2.258   5.346  -0.092  0.00  0.00    -0.357 N 
ATOM      2  C3  <0> d           2.354   4.033   0.198  0.00  0.00     0.254 C 
ATOM      3  O1  <0> d           3.446   3.505   0.271  0.00  0.00    -0.267 OA
ENDROOT
BRANCH   2   4
ATOM      4  C4  <0> d           1.130   3.235   0.426  0.00  0.00     0.049 A 
ATOM      5  C8  <0> d           0.048   3.780   1.119  0.00  0.00     0.017 A 
ATOM      6  N2  <0> d          -1.042   3.069   1.323  0.00  0.00    -0.272 NA
ATOM      7  H10 <0> d           0.104   4.792   1.490  0.00  0.00     0.116 H 
ATOM      8  C7  <0> d          -1.159   1.831   0.883  0.00  0.00     0.002 A 
ATOM      9  C6  <0> d          -0.129   1.217   0.193  0.00  0.00    -0.065 A 
ATOM     10  H9  <0> d          -2.073   1.286   1.068  0.00  0.00     0.114 H 
ATOM     11  C5  <0> d           1.038   1.921  -0.048  0.00  0.00    -0.065 A 
ATOM     12  H8  <0> d          -0.235   0.202  -0.158  0.00  0.00     0.085 H 
ATOM     13  H7  <0> d           1.857   1.468  -0.588  0.00  0.00     0.085 H 
ENDBRANCH   2   4
BRANCH   1  14
ATOM     14  C1  <0> d           3.462   6.112  -0.422  0.00  0.00    -0.016 C 
ATOM     15  H1  <0> d           4.332   5.457  -0.383  0.00  0.00     0.056 H 
ATOM     16  H2  <0> d           3.365   6.527  -1.426  0.00  0.00     0.056 H 
ATOM     17  H3  <0> d           3.585   6.923   0.296  0.00  0.00     0.056 H 
ENDBRANCH   1  14
BRANCH   1  18
ATOM     18  C2  <0> d           0.951   6.006  -0.077  0.00  0.00    -0.016 C 
ATOM     19  H4  <0> d           0.716   6.323   0.939  0.00  0.00     0.056 H 
ATOM     20  H5  <0> d           0.975   6.876  -0.733  0.00  0.00     0.056 H 
ATOM     21  H6  <0> d           0.188   5.309  -0.425  0.00  0.00     0.056 H 
ENDBRANCH   1  18
TORSDOF 3
