REMARK  2 active torsions:
REMARK  status: ('A' for Active; 'I' for Inactive)
REMARK    1  A    between atoms: C6_8  and  O2_13 
REMARK    2  A    between atoms: C7_10  and  O1_12 
ROOT
ATOM      1  C1  <0> d           2.030   0.016   1.404  0.00  0.00    -0.059 C 
ATOM      2  C2  <0> d           2.010   1.561   1.412  0.00  0.00    -0.059 C 
ATOM      3  C3  <0> d           1.484   1.956  -0.002  0.00  0.00    -0.026 C 
ATOM      4  H1  <0> d           1.695   2.973  -0.333  0.00  0.00     0.044 H 
ATOM      5  C4  <0> d           2.096   0.802  -0.871  0.00  0.00    -0.054 C 
ATOM      6  C5  <0> d           1.516  -0.378  -0.014  0.00  0.00    -0.026 C 
ATOM      7  H2  <0> d           1.754  -1.385  -0.357  0.00  0.00     0.044 H 
ATOM      8  C6  <0> d           0.002  -0.004   0.002  0.00  0.00     0.064 C 
ATOM      9  H3  <0> d          -0.478  -0.396   0.899  0.00  0.00     0.087 H 
ATOM     10  C7  <0> d          -0.019   1.542   0.011  0.00  0.00     0.064 C 
ATOM     11  H4  <0> d          -0.507   1.910   0.912  0.00  0.00     0.087 H 
ATOM     12  H5  <0> d           1.365  -0.378   2.172  0.00  0.00     0.033 H 
ATOM     13  H6  <0> d           3.046  -0.351   1.555  0.00  0.00     0.033 H 
ATOM     14  H7  <0> d           3.014   1.954   1.568  0.00  0.00     0.033 H 
ATOM     15  H8  <0> d           1.335   1.930   2.185  0.00  0.00     0.033 H 
ATOM     16  H9  <0> d           3.186   0.817  -0.861  0.00  0.00     0.034 H 
ATOM     17  H10 <0> d           1.702   0.802  -1.887  0.00  0.00     0.034 H 
ENDROOT
BRANCH   8  18
ATOM     18  O2  <0> d          -0.647  -0.505  -1.168  0.00  0.00    -0.393 OA
ATOM     19  H12 <0> d          -1.580  -0.258  -1.236  0.00  0.00     0.210 HD
ENDBRANCH   8  18
BRANCH  10  20
ATOM     20  O1  <0> d          -0.682   2.037  -1.154  0.00  0.00    -0.393 OA
ATOM     21  H11 <0> d          -1.607   1.766  -1.225  0.00  0.00     0.210 HD
ENDBRANCH  10  20
TORSDOF 2
