REMARK  0 active torsions:
REMARK  status: ('A' for Active; 'I' for Inactive)
ROOT
ATOM      1  C1  <0> d           0.002  -0.004   0.002  0.00  0.00    -0.065 A 
ATOM      2  C2  <0> d          -0.016   1.333   0.009  0.00  0.00    -0.043 A 
ATOM      3  S1  <0> d           1.715   1.761  -0.005  0.00  0.00    -0.094 SA
ATOM      4  C3  <0> d           2.389   0.135  -0.020  0.00  0.00     0.055 A 
ATOM      5  C4  <0> d           1.286  -0.724  -0.014  0.00  0.00    -0.011 A 
ATOM      6  C5  <0> d           1.670  -2.146  -0.025  0.00  0.00    -0.065 A 
ATOM      7  C6  <0> d           2.962  -2.491  -0.040  0.00  0.00    -0.043 A 
ATOM      8  S2  <0> d           3.801  -0.917  -0.039  0.00  0.00    -0.094 SA
ATOM      9  H1  <0> d          -0.926  -0.556   0.008  0.00  0.00     0.085 H 
ATOM     10  H2  <0> d          -0.871   1.994   0.017  0.00  0.00     0.095 H 
ATOM     11  H3  <0> d           0.908  -2.911  -0.022  0.00  0.00     0.085 H 
ATOM     12  H4  <0> d           3.393  -3.481  -0.049  0.00  0.00     0.095 H 
ENDROOT
TORSDOF 0
