REMARK  3 active torsions:
REMARK  status: ('A' for Active; 'I' for Inactive)
REMARK    1  A    between atoms: C1_1  and  O1_2 
REMARK    2  A    between atoms: O1_2  and  C2_3 
REMARK    3  A    between atoms: C2_3  and  C3_5 
ROOT
ATOM      1  C3  <0> d           1.217   1.750  -0.000  0.00  0.00     0.153 A 
ATOM      2  C4  <0> d           2.084   0.631  -0.015  0.00  0.00    -0.031 A 
ATOM      3  C5  <0> d           1.275  -0.454  -0.013  0.00  0.00    -0.002 A 
ATOM      4  N1  <0> d           0.002  -0.004   0.002  0.00  0.00    -0.289 N 
ATOM      5  H1  <0> d          -0.834  -0.719   0.006  0.00  0.00     0.188 HD
ATOM      6  N2  <0> d          -0.015   1.280   0.009  0.00  0.00    -0.169 NA
ATOM      7  H5  <0> d           3.164   0.641  -0.025  0.00  0.00     0.089 H 
ATOM      8  H6  <0> d           1.589  -1.487  -0.021  0.00  0.00     0.113 H 
ENDROOT
BRANCH   1   9
ATOM      9  C2  <0> d           1.616   3.171   0.003  0.00  0.00     0.313 C 
ATOM     10  O2  <0> d           2.793   3.471  -0.007  0.00  0.00    -0.257 OA
BRANCH   9  11
ATOM     11  O1  <0> d           0.675   4.134   0.017  0.00  0.00    -0.321 OA
BRANCH  11  12
ATOM     12  C1  <0> d           1.140   5.510   0.020  0.00  0.00     0.013 C 
ATOM     13  H2  <0> d           0.275   6.189   0.032  0.00  0.00     0.067 H 
ATOM     14  H3  <0> d           1.740   5.696  -0.883  0.00  0.00     0.067 H 
ATOM     15  H4  <0> d           1.757   5.686   0.913  0.00  0.00     0.067 H 
ENDBRANCH  11  12
ENDBRANCH   9  11
ENDBRANCH   1   9
TORSDOF 3
