REMARK  1 active torsions:
REMARK  status: ('A' for Active; 'I' for Inactive)
REMARK    1  A    between atoms: C4_5  and  C6_7 
ROOT
ATOM      1  C1  <0> d          -1.250   3.488   0.032  0.00  0.00    -0.078 A 
ATOM      2  C2  <0> d          -1.241   2.103   0.019  0.00  0.00    -0.045 A 
ATOM      3  C3  <0> d          -0.017   1.428   0.010  0.00  0.00     0.137 A 
ATOM      4  N1  <0> d           1.124   2.099   0.003  0.00  0.00    -0.231 NA
ATOM      5  C4  <0> d           1.150   3.423   0.009  0.00  0.00     0.134 A 
ATOM      6  C5  <0> d          -0.037   4.158   0.024  0.00  0.00    -0.048 A 
ATOM      7  C7  <0> d           0.002  -0.004   0.002  0.00  0.00     0.119 C 
ATOM      8  N2  <0> d           0.018  -1.140  -0.004  0.00  0.00    -0.190 NA
ATOM      9  H1  <0> d          -2.182   4.033   0.043  0.00  0.00     0.083 H 
ATOM     10  H2  <0> d          -2.169   1.551   0.021  0.00  0.00     0.088 H 
ATOM     11  H3  <0> d          -0.010   5.238   0.029  0.00  0.00     0.087 H 
ENDROOT
BRANCH   5  12
ATOM     12  C6  <0> d           2.451   4.131   0.001  0.00  0.00     0.229 C 
ATOM     13  O1  <0> d           2.481   5.345   0.007  0.00  0.00    -0.643 OA
ATOM     14  O2  <0> d           3.599   3.429  -0.013  0.00  0.00    -0.643 OA
ENDBRANCH   5  12
TORSDOF 1
