REMARK  4 active torsions:
REMARK  status: ('A' for Active; 'I' for Inactive)
REMARK    1  A    between atoms: C1_1  and  C2_2 
REMARK    2  A    between atoms: C2_2  and  C3_3 
REMARK    3  A    between atoms: C2_2  and  C4_4 
REMARK    4  A    between atoms: C7_7  and  C10_10 
ROOT
ATOM      1  C10 <0> d          -0.013   1.086   0.008  0.00  0.00     0.038 C 
ATOM      2  C11 <0> d          -0.725   1.573  -1.185  0.00  0.00     0.063 C 
ATOM      3  N1  <0> d          -1.274   1.950  -2.105  0.00  0.00    -0.197 NA
ATOM      4  H12 <0> d           0.002  -0.004   0.002  0.00  0.00     0.062 H 
ATOM      5  H13 <0> d           1.010   1.463   0.000  0.00  0.00     0.062 H 
ENDROOT
BRANCH   1   6
ATOM      6  C7  <0> d          -0.718   1.572   1.248  0.00  0.00    -0.045 A 
ATOM      7  C6  <0> d          -1.719   0.808   1.818  0.00  0.00    -0.075 A 
ATOM      8  C5  <0> d          -2.366   1.254   2.955  0.00  0.00    -0.076 A 
ATOM      9  H9  <0> d          -1.996  -0.137   1.374  0.00  0.00     0.084 H 
ATOM     10  C4  <0> d          -2.012   2.463   3.523  0.00  0.00    -0.055 A 
ATOM     11  H8  <0> d          -3.149   0.657   3.400  0.00  0.00     0.084 H 
ATOM     12  C9  <0> d          -1.010   3.227   2.953  0.00  0.00    -0.076 A 
ATOM     13  C8  <0> d          -0.360   2.779   1.819  0.00  0.00    -0.075 A 
ATOM     14  H11 <0> d          -0.733   4.172   3.397  0.00  0.00     0.084 H 
ATOM     15  H10 <0> d           0.425   3.373   1.376  0.00  0.00     0.084 H 
BRANCH  10  16
ATOM     16  C2  <0> d          -2.718   2.950   4.762  0.00  0.00    -0.036 C 
ATOM     17  H4  <0> d          -3.471   2.220   5.061  0.00  0.00     0.046 H 
BRANCH  16  18
ATOM     18  C1  <0> d          -1.702   3.127   5.892  0.00  0.00    -0.069 C 
ATOM     19  H1  <0> d          -2.212   3.479   6.788  0.00  0.00     0.028 H 
ATOM     20  H2  <0> d          -1.219   2.172   6.100  0.00  0.00     0.028 H 
ATOM     21  H3  <0> d          -0.949   3.856   5.593  0.00  0.00     0.028 H 
ENDBRANCH  16  18
BRANCH  16  22
ATOM     22  C3  <0> d          -3.395   4.290   4.470  0.00  0.00    -0.069 C 
ATOM     23  H5  <0> d          -4.119   4.164   3.665  0.00  0.00     0.028 H 
ATOM     24  H6  <0> d          -3.905   4.642   5.367  0.00  0.00     0.028 H 
ATOM     25  H7  <0> d          -2.642   5.020   4.171  0.00  0.00     0.028 H 
ENDBRANCH  16  22
ENDBRANCH  10  16
ENDBRANCH   1   6
TORSDOF 4
