REMARK  0 active torsions:
REMARK  status: ('A' for Active; 'I' for Inactive)
ROOT
ATOM      1  C1  <0> d           1.222   1.827   0.000  0.00  0.00     0.029 A 
ATOM      2  C2  <0> d           2.063   0.716  -0.014  0.00  0.00    -0.015 A 
ATOM      3  C3  <0> d           1.286  -0.398  -0.013  0.00  0.00     0.035 A 
ATOM      4  N1  <0> d           0.002  -0.004   0.002  0.00  0.00    -0.282 N 
ATOM      5  H1  <0> d          -0.798  -0.604   0.007  0.00  0.00     0.189 HD
ATOM      6  N2  <0> d          -0.017   1.399   0.010  0.00  0.00    -0.186 NA
ATOM      7  C4  <0> d           1.827  -1.806  -0.030  0.00  0.00    -0.025 C 
ATOM      8  C5  <0> d           3.298  -1.754  -0.461  0.00  0.00    -0.060 C 
ATOM      9  C6  <0> d           4.039  -0.708   0.377  0.00  0.00    -0.061 C 
ATOM     10  C7  <0> d           3.571   0.696  -0.026  0.00  0.00    -0.038 C 
ATOM     11  H2  <0> d           1.536   2.860   0.002  0.00  0.00     0.118 H 
ATOM     12  H3  <0> d           1.751  -2.240   0.967  0.00  0.00     0.042 H 
ATOM     13  H4  <0> d           1.258  -2.409  -0.738  0.00  0.00     0.042 H 
ATOM     14  H5  <0> d           3.755  -2.732  -0.308  0.00  0.00     0.033 H 
ATOM     15  H6  <0> d           3.358  -1.485  -1.515  0.00  0.00     0.033 H 
ATOM     16  H7  <0> d           3.827  -0.872   1.433  0.00  0.00     0.033 H 
ATOM     17  H8  <0> d           5.111  -0.797   0.203  0.00  0.00     0.033 H 
ATOM     18  H9  <0> d           3.954   1.428   0.684  0.00  0.00     0.040 H 
ATOM     19  H10 <0> d           3.933   0.930  -1.027  0.00  0.00     0.040 H 
ENDROOT
TORSDOF 0
