REMARK  6 active torsions:
REMARK  status: ('A' for Active; 'I' for Inactive)
REMARK    1  A    between atoms: C1_1  and  C2_2 
REMARK    2  A    between atoms: C2_2  and  C3_3 
REMARK    3  A    between atoms: C2_2  and  C4_4 
REMARK    4  A    between atoms: C5_5  and  C6_6 
REMARK    5  A    between atoms: C6_6  and  C7_7 
REMARK    6  A    between atoms: C7_7  and  C9_9 
ROOT
ATOM      1  C4  <0> d          -1.412  -0.526   0.013  0.00  0.00    -0.103 C 
ATOM      2  C5  <0> d          -1.839  -1.279  -0.970  0.00  0.00    -0.102 C 
ATOM      3  H8  <0> d          -2.072  -0.278   0.830  0.00  0.00     0.076 H 
ATOM      4  H9  <0> d          -1.179  -1.527  -1.788  0.00  0.00     0.076 H 
ENDROOT
BRANCH   2   5
ATOM      5  C6  <0> d          -3.253  -1.801  -0.959  0.00  0.00    -0.027 C 
ATOM      6  H10 <0> d          -3.239  -2.888  -0.875  0.00  0.00     0.045 H 
ATOM      7  H11 <0> d          -3.790  -1.378  -0.110  0.00  0.00     0.045 H 
BRANCH   5   8
ATOM      8  C7  <0> d          -3.945  -1.405  -2.238  0.00  0.00    -0.065 C 
ATOM      9  C8  <0> d          -3.978  -2.248  -3.264  0.00  0.00    -0.115 C 
ATOM     10  H12 <0> d          -4.473  -1.964  -4.181  0.00  0.00     0.067 H 
ATOM     11  H13 <0> d          -3.510  -3.218  -3.182  0.00  0.00     0.067 H 
BRANCH   8  12
ATOM     12  C9  <0> d          -4.582  -0.084  -2.351  0.00  0.00    -0.086 C 
ATOM     13  C10 <0> d          -4.549   0.760  -1.325  0.00  0.00    -0.121 C 
ATOM     14  H15 <0> d          -4.054   0.476  -0.408  0.00  0.00     0.066 H 
ATOM     15  H16 <0> d          -5.017   1.730  -1.407  0.00  0.00     0.066 H 
ATOM     16  H14 <0> d          -5.078   0.200  -3.267  0.00  0.00     0.083 H 
ENDBRANCH   8  12
ENDBRANCH   5   8
ENDBRANCH   2   5
BRANCH   1  17
ATOM     17  C2  <0> d           0.002  -0.004   0.002  0.00  0.00    -0.045 C 
ATOM     18  H4  <0> d           0.512  -0.356  -0.895  0.00  0.00     0.044 H 
BRANCH  17  19
ATOM     19  C1  <0> d          -0.019   1.526   0.010  0.00  0.00    -0.070 C 
ATOM     20  H1  <0> d           1.004   1.903   0.003  0.00  0.00     0.028 H 
ATOM     21  H2  <0> d          -0.546   1.887  -0.873  0.00  0.00     0.028 H 
ATOM     22  H3  <0> d          -0.529   1.877   0.907  0.00  0.00     0.028 H 
ENDBRANCH  17  19
BRANCH  17  23
ATOM     23  C3  <0> d           0.742  -0.511   1.242  0.00  0.00    -0.070 C 
ATOM     24  H5  <0> d           0.232  -0.159   2.138  0.00  0.00     0.028 H 
ATOM     25  H6  <0> d           0.757  -1.601   1.236  0.00  0.00     0.028 H 
ATOM     26  H7  <0> d           1.765  -0.134   1.234  0.00  0.00     0.028 H 
ENDBRANCH  17  23
ENDBRANCH   1  17
TORSDOF 6
