REMARK  2 active torsions:
REMARK  status: ('A' for Active; 'I' for Inactive)
REMARK    1  A    between atoms: C1_1  and  C2_2 
REMARK    2  A    between atoms: C6_7  and  N2_8 
ROOT
ATOM      1  C2  <0> d           0.002  -0.004   0.002  0.00  0.00    -0.014 A 
ATOM      2  C3  <0> d           0.006  -0.698  -1.195  0.00  0.00    -0.035 A 
ATOM      3  C4  <0> d           0.025  -2.088  -1.155  0.00  0.00     0.134 A 
ATOM      4  C5  <0> d           0.039  -2.729   0.070  0.00  0.00     0.042 A 
ATOM      5  N1  <0> d           0.035  -2.039   1.194  0.00  0.00    -0.240 NA
ATOM      6  C6  <0> d           0.023  -0.715   1.197  0.00  0.00     0.127 A 
ATOM      7  F1  <0> d           0.029  -2.804  -2.301  0.00  0.00    -0.205 F 
ATOM      8  H4  <0> d          -0.006  -0.173  -2.138  0.00  0.00     0.089 H 
ATOM      9  H5  <0> d           0.054  -3.808   0.106  0.00  0.00     0.119 H 
ENDROOT
BRANCH   1  10
ATOM     10  C1  <0> d          -0.018   1.503   0.010  0.00  0.00    -0.048 C 
ATOM     11  H1  <0> d           1.004   1.880   0.003  0.00  0.00     0.033 H 
ATOM     12  H2  <0> d          -0.545   1.864  -0.873  0.00  0.00     0.033 H 
ATOM     13  H3  <0> d          -0.529   1.854   0.907  0.00  0.00     0.033 H 
ENDBRANCH   1  10
BRANCH   6  14
ATOM     14  N2  <0> d           0.025  -0.028   2.407  0.00  0.00    -0.384 N 
ATOM     15  H6  <0> d           0.012   0.942   2.414  0.00  0.00     0.157 HD
ATOM     16  H7  <0> d           0.040  -0.519   3.244  0.00  0.00     0.157 HD
ENDBRANCH   6  14
TORSDOF 2
