REMARK  3 active torsions:
REMARK  status: ('A' for Active; 'I' for Inactive)
REMARK    1  A    between atoms: C1_1  and  C2_2 
REMARK    2  A    between atoms: C2_2  and  C3_3 
REMARK    3  A    between atoms: C2_2  and  C5_6 
ROOT
ATOM      1  C2  <0> d           0.002  -0.004   0.002  0.00  0.00     0.075 C 
ATOM      2  C4  <0> d          -1.379  -0.514   0.013  0.00  0.00     0.074 C 
ATOM      3  N1  <0> d          -2.445  -0.907   0.021  0.00  0.00    -0.196 NA
ENDROOT
BRANCH   1   4
ATOM      4  C1  <0> d          -0.019   1.526   0.010  0.00  0.00    -0.053 C 
ATOM      5  H1  <0> d           1.004   1.903   0.003  0.00  0.00     0.030 H 
ATOM      6  H2  <0> d          -0.546   1.887  -0.873  0.00  0.00     0.030 H 
ATOM      7  H3  <0> d          -0.529   1.877   0.907  0.00  0.00     0.030 H 
ENDBRANCH   1   4
BRANCH   1   8
ATOM      8  C3  <0> d           0.742  -0.511   1.242  0.00  0.00    -0.053 C 
ATOM      9  H4  <0> d           0.232  -0.159   2.138  0.00  0.00     0.030 H 
ATOM     10  H5  <0> d           0.757  -1.601   1.236  0.00  0.00     0.030 H 
ATOM     11  H6  <0> d           1.765  -0.134   1.234  0.00  0.00     0.030 H 
ENDBRANCH   1   8
BRANCH   1  12
ATOM     12  C5  <0> d           0.707  -0.490  -1.238  0.00  0.00     0.004 A 
ATOM     13  S1  <0> d           1.443   0.460  -2.558  0.00  0.00    -0.105 SA
ATOM     14  C8  <0> d           2.022  -0.902  -3.556  0.00  0.00    -0.044 A 
ATOM     15  C7  <0> d           1.617  -1.973  -2.831  0.00  0.00    -0.076 A 
ATOM     16  H9  <0> d           2.554  -0.879  -4.496  0.00  0.00     0.095 H 
ATOM     17  C6  <0> d           0.943  -1.762  -1.643  0.00  0.00    -0.068 A 
ATOM     18  H8  <0> d           1.818  -2.977  -3.176  0.00  0.00     0.084 H 
ATOM     19  H7  <0> d           0.610  -2.598  -1.046  0.00  0.00     0.085 H 
ENDBRANCH   1  12
TORSDOF 3
