REMARK  2 active torsions:
REMARK  status: ('A' for Active; 'I' for Inactive)
REMARK    1  A    between atoms: C1_1  and  C2_2 
REMARK    2  A    between atoms: C6_6  and  N2_12 
ROOT
ATOM      1  C2  <0> d          -0.505   3.582   0.025  0.00  0.00     0.006 A 
ATOM      2  C3  <0> d           0.836   3.517   0.012  0.00  0.00    -0.049 A 
ATOM      3  C4  <0> d           1.197   2.097   0.002  0.00  0.00    -0.005 A 
ATOM      4  C5  <0> d           2.410   1.406  -0.013  0.00  0.00    -0.046 A 
ATOM      5  C6  <0> d           2.409   0.024  -0.020  0.00  0.00     0.026 A 
ATOM      6  C7  <0> d           1.203  -0.676  -0.013  0.00  0.00    -0.056 A 
ATOM      7  C8  <0> d           0.002  -0.004   0.002  0.00  0.00    -0.054 A 
ATOM      8  C9  <0> d          -0.017   1.387   0.010  0.00  0.00     0.042 A 
ATOM      9  N1  <0> d          -1.033   2.320   0.019  0.00  0.00    -0.359 N 
ATOM     10  H1  <0> d          -1.980   2.112   0.022  0.00  0.00     0.166 HD
ATOM     11  H5  <0> d           1.519   4.353   0.010  0.00  0.00     0.087 H 
ATOM     12  H6  <0> d           3.345   1.948  -0.018  0.00  0.00     0.088 H 
ATOM     13  H7  <0> d           1.212  -1.756  -0.018  0.00  0.00     0.087 H 
ATOM     14  H8  <0> d          -0.926  -0.557   0.008  0.00  0.00     0.087 H 
ENDROOT
BRANCH   1  15
ATOM     15  C1  <0> d          -1.309   4.856   0.039  0.00  0.00    -0.037 C 
ATOM     16  H2  <0> d          -1.513   5.168  -0.986  0.00  0.00     0.035 H 
ATOM     17  H3  <0> d          -2.251   4.686   0.560  0.00  0.00     0.035 H 
ATOM     18  H4  <0> d          -0.746   5.636   0.551  0.00  0.00     0.035 H 
ENDBRANCH   1  15
BRANCH   5  19
ATOM     19  N2  <0> d           3.621  -0.675  -0.034  0.00  0.00    -0.399 N 
ATOM     20  H9  <0> d           3.622  -1.645  -0.038  0.00  0.00     0.156 HD
ATOM     21  H10 <0> d           4.461  -0.190  -0.039  0.00  0.00     0.156 HD
ENDBRANCH   5  19
TORSDOF 2
