REMARK  6 active torsions:
REMARK  status: ('A' for Active; 'I' for Inactive)
REMARK    1  A    between atoms: C1_1  and  C2_2 
REMARK    2  A    between atoms: C3_3  and  N3_11 
REMARK    3  A    between atoms: N2_6  and  C5_7 
REMARK    4  A    between atoms: C5_7  and  C6_8 
REMARK    5  A    between atoms: C6_8  and  C7_9 
REMARK    6  A    between atoms: C6_8  and  C8_10 
ROOT
ATOM      1  C2  <0> d           1.269   1.832  -0.000  0.00  0.00     0.054 A 
ATOM      2  C3  <0> d          -0.017   1.398   0.010  0.00  0.00     0.069 A 
ATOM      3  C4  <0> d           0.002  -0.004   0.002  0.00  0.00     0.049 A 
ATOM      4  N1  <0> d           1.250  -0.399  -0.012  0.00  0.00    -0.182 NA
ATOM      5  N2  <0> d           2.072   0.735  -0.014  0.00  0.00    -0.272 N 
ATOM      6  H4  <0> d          -0.865  -0.648   0.007  0.00  0.00     0.121 H 
ENDROOT
BRANCH   5   7
ATOM      7  C5  <0> d           3.537   0.738  -0.027  0.00  0.00     0.020 C 
ATOM      8  H5  <0> d           3.906   1.634   0.492  0.00  0.00     0.068 H 
ATOM      9  H6  <0> d           3.910  -0.162   0.484  0.00  0.00     0.068 H 
BRANCH   7  10
ATOM     10  C6  <0> d           4.033   0.746  -1.474  0.00  0.00    -0.044 C 
ATOM     11  H7  <0> d           3.591  -0.102  -2.018  0.00  0.00     0.041 H 
BRANCH  10  12
ATOM     12  C7  <0> d           3.619   2.055  -2.148  0.00  0.00    -0.072 C 
ATOM     13  H8  <0> d           3.977   2.061  -3.189  0.00  0.00     0.028 H 
ATOM     14  H9  <0> d           4.061   2.903  -1.605  0.00  0.00     0.028 H 
ATOM     15  H10 <0> d           2.523   2.143  -2.137  0.00  0.00     0.028 H 
ENDBRANCH  10  12
BRANCH  10  16
ATOM     16  C8  <0> d           5.558   0.623  -1.491  0.00  0.00    -0.072 C 
ATOM     17  H11 <0> d           5.915   0.629  -2.531  0.00  0.00     0.028 H 
ATOM     18  H12 <0> d           5.856  -0.318  -1.006  0.00  0.00     0.028 H 
ATOM     19  H13 <0> d           6.000   1.471  -0.947  0.00  0.00     0.028 H 
ENDBRANCH  10  16
ENDBRANCH   7  10
ENDBRANCH   5   7
BRANCH   1  20
ATOM     20  C1  <0> d           1.724   3.268   0.002  0.00  0.00    -0.034 C 
ATOM     21  H1  <0> d           0.846   3.931   0.015  0.00  0.00     0.035 H 
ATOM     22  H2  <0> d           2.320   3.466  -0.901  0.00  0.00     0.035 H 
ATOM     23  H3  <0> d           2.338   3.457   0.895  0.00  0.00     0.035 H 
ENDBRANCH   1  20
BRANCH   2  24
ATOM     24  N3  <0> d          -1.166   2.211   0.020  0.00  0.00    -0.396 N 
ATOM     25  H14 <0> d          -2.165   1.752   0.027  0.00  0.00     0.156 HD
ATOM     26  H15 <0> d          -1.065   3.307   0.020  0.00  0.00     0.156 HD
ENDBRANCH   2  24
TORSDOF 6
