REMARK  2 active torsions:
REMARK  status: ('A' for Active; 'I' for Inactive)
REMARK    1  A    between atoms: C3_3  and  C7_9 
REMARK    2  A    between atoms: C7_9  and  O1_10 
ROOT
ATOM      1  C1  <0> d           2.395   0.004  -0.021  0.00  0.00    -0.078 A 
ATOM      2  C2  <0> d           1.200  -0.699  -0.013  0.00  0.00    -0.057 A 
ATOM      3  C3  <0> d           0.002  -0.004   0.002  0.00  0.00     0.059 A 
ATOM      4  N1  <0> d          -0.016   1.312   0.009  0.00  0.00    -0.240 NA
ATOM      5  C4  <0> d           1.105   2.023   0.002  0.00  0.00     0.137 A 
ATOM      6  C5  <0> d           2.347   1.389  -0.013  0.00  0.00    -0.045 A 
ATOM      7  C6  <0> d           1.039   3.454   0.010  0.00  0.00     0.119 C 
ATOM      8  N2  <0> d           0.986   4.588   0.016  0.00  0.00    -0.190 NA
ATOM      9  H1  <0> d           3.341  -0.515  -0.033  0.00  0.00     0.083 H 
ATOM     10  H2  <0> d           1.203  -1.779  -0.019  0.00  0.00     0.086 H 
ATOM     11  H3  <0> d           3.258   1.968  -0.019  0.00  0.00     0.088 H 
ENDROOT
BRANCH   3  12
ATOM     12  C7  <0> d          -1.299  -0.765   0.011  0.00  0.00     0.056 C 
ATOM     13  H4  <0> d          -1.868  -0.507   0.916  0.00  0.00     0.083 H 
ATOM     14  H5  <0> d          -1.886  -0.498  -0.880  0.00  0.00     0.083 H 
BRANCH  12  15
ATOM     15  O1  <0> d          -1.030  -2.168   0.001  0.00  0.00    -0.395 OA
ATOM     16  H6  <0> d          -1.862  -2.888   0.005  0.00  0.00     0.209 HD
ENDBRANCH  12  15
ENDBRANCH   3  12
TORSDOF 2
