REMARK  0 active torsions:
REMARK  status: ('A' for Active; 'I' for Inactive)
ROOT
ATOM      1  C1  <0> d           2.414  -2.748  -0.037  0.00  0.00    -0.064 A 
ATOM      2  C2  <0> d           1.192  -2.105  -0.021  0.00  0.00    -0.053 A 
ATOM      3  C3  <0> d           1.183  -0.709  -0.013  0.00  0.00     0.065 A 
ATOM      4  C4  <0> d           2.407  -0.021  -0.021  0.00  0.00     0.133 A 
ATOM      5  C5  <0> d           2.376   1.455  -0.012  0.00  0.00     0.204 A 
ATOM      6  O1  <0> d           3.408   2.107  -0.019  0.00  0.00    -0.286 OA
ATOM      7  C6  <0> d           1.114   2.089   0.003  0.00  0.00    -0.017 A 
ATOM      8  C7  <0> d          -0.016   1.350   0.009  0.00  0.00    -0.019 A 
ATOM      9  N1  <0> d           0.002  -0.004   0.002  0.00  0.00    -0.364 N 
ATOM     10  H1  <0> d          -0.958  -0.540   0.008  0.00  0.00     0.165 HD
ATOM     11  N2  <0> d           3.555  -0.686  -0.036  0.00  0.00    -0.255 NA
ATOM     12  C8  <0> d           3.585  -2.000  -0.044  0.00  0.00     0.003 A 
ATOM     13  H2  <0> d           2.460  -3.827  -0.044  0.00  0.00     0.085 H 
ATOM     14  H3  <0> d           0.270  -2.666  -0.016  0.00  0.00     0.087 H 
ATOM     15  H4  <0> d           1.052   3.167   0.009  0.00  0.00     0.091 H 
ATOM     16  H5  <0> d          -0.970   1.857   0.017  0.00  0.00     0.111 H 
ATOM     17  H6  <0> d           4.538  -2.508  -0.056  0.00  0.00     0.114 H 
ENDROOT
TORSDOF 0
