REMARK  2 active torsions:
REMARK  status: ('A' for Active; 'I' for Inactive)
REMARK    1  A    between atoms: C1_1  and  C2_2 
REMARK    2  A    between atoms: C3_4  and  C4_7 
ROOT
ATOM      1  C2  <0> d           3.180  -3.386  -0.046  0.00  0.00     0.169 A 
ATOM      2  N1  <0> d           3.163  -2.076  -0.039  0.00  0.00    -0.202 NA
ATOM      3  C3  <0> d           1.856  -1.731  -0.025  0.00  0.00     0.229 A 
ATOM      4  N2  <0> d           1.164  -2.839  -0.018  0.00  0.00    -0.102 NA
ATOM      5  O1  <0> d           1.908  -3.796  -0.035  0.00  0.00    -0.196 OA
ENDROOT
BRANCH   3   6
ATOM      6  C4  <0> d           1.309  -0.349  -0.012  0.00  0.00     0.228 A 
ATOM      7  N4  <0> d           2.001   0.759  -0.013  0.00  0.00    -0.103 NA
ATOM      8  O2  <0> d           1.256   1.716  -0.001  0.00  0.00    -0.205 OA
ATOM      9  C5  <0> d          -0.016   1.306   0.009  0.00  0.00     0.130 A 
ATOM     10  N3  <0> d           0.002  -0.004   0.002  0.00  0.00    -0.209 NA
ATOM     11  H4  <0> d          -0.893   1.935   0.017  0.00  0.00     0.159 H 
ENDBRANCH   3   6
BRANCH   1  12
ATOM     12  C1  <0> d           4.405  -4.265  -0.063  0.00  0.00    -0.013 C 
ATOM     13  H1  <0> d           4.710  -4.482   0.961  0.00  0.00     0.038 H 
ATOM     14  H2  <0> d           4.176  -5.197  -0.579  0.00  0.00     0.038 H 
ATOM     15  H3  <0> d           5.213  -3.751  -0.582  0.00  0.00     0.038 H 
ENDBRANCH   1  12
TORSDOF 2
