REMARK  5 active torsions:
REMARK  status: ('A' for Active; 'I' for Inactive)
REMARK    1  A    between atoms: C1_1  and  C2_2 
REMARK    2  A    between atoms: C2_2  and  C3_3 
REMARK       I    between atoms: C3_3  and  N1_5 
REMARK    3  A    between atoms: N1_5  and  C4_6 
REMARK    4  A    between atoms: C4_6  and  C5_7 
REMARK    5  A    between atoms: C5_7  and  C6_8 
ROOT
ATOM      1  C3  <0> d          -4.380   1.810  -2.105  0.00  0.00     0.217 C 
ATOM      2  O1  <0> d          -4.149   0.993  -2.971  0.00  0.00    -0.274 OA
ATOM      3  N1  <0> d          -3.461   2.060  -1.152  0.00  0.00    -0.361 N 
ATOM      4  H6  <0> d          -3.646   2.713  -0.459  0.00  0.00     0.162 HD
ENDROOT
BRANCH   3   5
ATOM      5  C4  <0> d          -2.182   1.345  -1.162  0.00  0.00    -0.002 C 
ATOM      6  H7  <0> d          -1.658   1.552  -2.095  0.00  0.00     0.064 H 
ATOM      7  H8  <0> d          -2.365   0.274  -1.077  0.00  0.00     0.064 H 
BRANCH   5   8
ATOM      8  C5  <0> d          -1.328   1.812   0.018  0.00  0.00    -0.036 C 
ATOM      9  H9  <0> d          -1.853   1.605   0.951  0.00  0.00     0.041 H 
ATOM     10  H10 <0> d          -1.145   2.883  -0.066  0.00  0.00     0.041 H 
BRANCH   8  11
ATOM     11  C6  <0> d          -0.013   1.076   0.008  0.00  0.00    -0.110 C 
ATOM     12  C7  <0> d           1.113   1.746   0.001  0.00  0.00    -0.125 C 
ATOM     13  H12 <0> d           1.098   2.826   0.007  0.00  0.00     0.066 H 
ATOM     14  H13 <0> d           2.055   1.219  -0.011  0.00  0.00     0.066 H 
ATOM     15  H11 <0> d           0.002  -0.004   0.002  0.00  0.00     0.075 H 
ENDBRANCH   8  11
ENDBRANCH   5   8
ENDBRANCH   3   5
BRANCH   1  16
ATOM     16  C2  <0> d          -5.696   2.546  -2.095  0.00  0.00     0.006 C 
ATOM     17  H4  <0> d          -6.220   2.339  -1.162  0.00  0.00     0.046 H 
ATOM     18  H5  <0> d          -5.513   3.617  -2.179  0.00  0.00     0.046 H 
BRANCH  16  19
ATOM     19  C1  <0> d          -6.550   2.079  -3.275  0.00  0.00    -0.068 C 
ATOM     20  H1  <0> d          -6.026   2.286  -4.208  0.00  0.00     0.028 H 
ATOM     21  H2  <0> d          -6.732   1.008  -3.190  0.00  0.00     0.028 H 
ATOM     22  H3  <0> d          -7.502   2.611  -3.268  0.00  0.00     0.028 H 
ENDBRANCH  16  19
ENDBRANCH   1  16
TORSDOF 5
