REMARK  1 active torsions:
REMARK  status: ('A' for Active; 'I' for Inactive)
REMARK    1  A    between atoms: C1_1  and  N1_2 
ROOT
ATOM      1  N1  <0> d           2.059   0.721  -0.013  0.00  0.00    -0.349 N 
ATOM      2  C2  <0> d           1.213   1.777   0.000  0.00  0.00     0.043 A 
ATOM      3  N2  <0> d          -0.016   1.332   0.009  0.00  0.00    -0.354 N 
ATOM      4  C3  <0> d           0.002  -0.004   0.002  0.00  0.00     0.033 A 
ATOM      5  C4  <0> d           1.292  -0.403  -0.011  0.00  0.00     0.034 A 
ATOM      6  C5  <0> d           1.739  -1.842  -0.019  0.00  0.00    -0.025 C 
ATOM      7  C6  <0> d           0.552  -2.719   0.400  0.00  0.00    -0.060 C 
ATOM      8  C7  <0> d          -0.680  -2.337  -0.423  0.00  0.00    -0.060 C 
ATOM      9  C8  <0> d          -1.173  -0.950   0.005  0.00  0.00    -0.025 C 
ATOM     10  H4  <0> d           1.505   2.817   0.003  0.00  0.00     0.140 H 
ATOM     11  H5  <0> d           2.071  -2.117  -1.031  0.00  0.00     0.042 H 
ATOM     12  H6  <0> d           2.571  -1.971   0.688  0.00  0.00     0.042 H 
ATOM     13  H7  <0> d           0.798  -3.777   0.224  0.00  0.00     0.033 H 
ATOM     14  H8  <0> d           0.342  -2.565   1.469  0.00  0.00     0.033 H 
ATOM     15  H9  <0> d          -0.417  -2.318  -1.491  0.00  0.00     0.033 H 
ATOM     16  H10 <0> d          -1.477  -3.076  -0.255  0.00  0.00     0.033 H 
ATOM     17  H11 <0> d          -1.602  -0.999   1.017  0.00  0.00     0.042 H 
ATOM     18  H12 <0> d          -1.937  -0.588  -0.699  0.00  0.00     0.042 H 
ATOM     19  H13 <0> d          -0.858   2.040   0.021  0.00  0.00     0.166 HD
ENDROOT
BRANCH   1  20
ATOM     20  C1  <0> d           3.523   0.777  -0.028  0.00  0.00    -0.013 C 
ATOM     21  H1  <0> d           3.849   1.828  -0.026  0.00  0.00     0.057 H 
ATOM     22  H2  <0> d           3.900   0.278  -0.932  0.00  0.00     0.057 H 
ATOM     23  H3  <0> d           3.918   0.269   0.864  0.00  0.00     0.057 H 
ENDBRANCH   1  20
TORSDOF 1
