REMARK  2 active torsions:
REMARK  status: ('A' for Active; 'I' for Inactive)
REMARK    1  A    between atoms: C1_1  and  C2_2 
REMARK    2  A    between atoms: C4_4  and  N1_9 
ROOT
ATOM      1  C2  <0> d          -3.629   1.616   0.028  0.00  0.00    -0.038 A 
ATOM      2  C3  <0> d          -2.425   0.939   0.019  0.00  0.00    -0.050 A 
ATOM      3  C4  <0> d          -1.231   1.648   0.017  0.00  0.00     0.026 A 
ATOM      4  C5  <0> d          -1.251   3.037   0.030  0.00  0.00    -0.056 A 
ATOM      5  C6  <0> d          -2.458   3.708   0.033  0.00  0.00    -0.059 A 
ATOM      6  C7  <0> d          -3.646   2.999   0.035  0.00  0.00     0.040 A 
ATOM      7 Cl1  <0> d          -5.161   3.846   0.047  0.00  0.00    -0.084 Cl
ATOM      8  H4  <0> d          -2.412  -0.141   0.013  0.00  0.00     0.087 H 
ATOM      9  H5  <0> d          -0.324   3.591   0.034  0.00  0.00     0.087 H 
ATOM     10  H6  <0> d          -2.474   4.788   0.039  0.00  0.00     0.086 H 
ENDROOT
BRANCH   1  11
ATOM     11  C1  <0> d          -4.925   0.847   0.029  0.00  0.00    -0.050 C 
ATOM     12  H1  <0> d          -5.232   0.655   1.057  0.00  0.00     0.033 H 
ATOM     13  H2  <0> d          -5.694   1.429  -0.478  0.00  0.00     0.033 H 
ATOM     14  H3  <0> d          -4.785  -0.101  -0.490  0.00  0.00     0.033 H 
ENDBRANCH   1  11
BRANCH   3  15
ATOM     15  N1  <0> d          -0.011   0.966   0.007  0.00  0.00    -0.399 N 
ATOM     16  H7  <0> d           0.002  -0.004   0.002  0.00  0.00     0.156 HD
ATOM     17  H8  <0> d           0.822   1.462   0.002  0.00  0.00     0.156 HD
ENDBRANCH   3  15
TORSDOF 2
