REMARK  4 active torsions:
REMARK  status: ('A' for Active; 'I' for Inactive)
REMARK    1  A    between atoms: C1_1  and  C2_2 
REMARK    2  A    between atoms: C3_3  and  C7_10 
REMARK    3  A    between atoms: C4_5  and  C5_7 
REMARK    4  A    between atoms: C5_7  and  C6_9 
ROOT
ATOM      1  C2  <0> d          -2.751   3.676   0.035  0.00  0.00     0.044 A 
ATOM      2  C3  <0> d          -3.793   2.792   0.035  0.00  0.00     0.005 A 
ATOM      3  S1  <0> d          -2.955   1.271   0.023  0.00  0.00    -0.070 SA
ATOM      4  C4  <0> d          -1.292   1.924   0.019  0.00  0.00     0.143 A 
ATOM      5  N1  <0> d          -1.525   3.233   0.033  0.00  0.00    -0.242 NA
ENDROOT
BRANCH   4   6
ATOM      6  C5  <0> d          -0.014   1.209   0.009  0.00  0.00     0.181 C 
ATOM      7  O1  <0> d           0.002  -0.004   0.002  0.00  0.00    -0.291 OA
BRANCH   6   8
ATOM      8  C6  <0> d           1.280   1.980   0.001  0.00  0.00    -0.015 C 
ATOM      9  H4  <0> d           1.558   2.156  -0.944  0.00  0.00     0.038 H 
ATOM     10  H5  <0> d           1.142   2.928   0.521  0.00  0.00     0.038 H 
ATOM     11  H6  <0> d           2.053   1.399   0.504  0.00  0.00     0.038 H 
ENDBRANCH   6   8
ENDBRANCH   4   6
BRANCH   2  12
ATOM     12  C7  <0> d          -5.275   3.064   0.044  0.00  0.00    -0.043 C 
ATOM     13  H7  <0> d          -5.818   2.119   0.042  0.00  0.00     0.034 H 
ATOM     14  H8  <0> d          -5.535   3.630   0.939  0.00  0.00     0.034 H 
ATOM     15  H9  <0> d          -5.544   3.640  -0.841  0.00  0.00     0.034 H 
ENDBRANCH   2  12
BRANCH   1  16
ATOM     16  C1  <0> d          -3.019   5.159   0.044  0.00  0.00    -0.035 C 
ATOM     17  H1  <0> d          -3.079   5.511   1.074  0.00  0.00     0.035 H 
ATOM     18  H2  <0> d          -2.210   5.678  -0.470  0.00  0.00     0.035 H 
ATOM     19  H3  <0> d          -3.962   5.362  -0.464  0.00  0.00     0.035 H 
ENDBRANCH   1  16
TORSDOF 4
