REMARK  1 active torsions:
REMARK  status: ('A' for Active; 'I' for Inactive)
REMARK    1  A    between atoms: C1_1  and  C2_2 
ROOT
ATOM      1  C2  <0> d          -0.013   1.086   0.008  0.00  0.00     0.009 C 
ATOM      2  H1  <0> d           0.002  -0.004   0.002  0.00  0.00     0.071 H 
ATOM      3  C3  <0> d          -0.775   1.603   1.248  0.00  0.00    -0.039 C 
ATOM      4  C4  <0> d          -2.205   1.785   0.683  0.00  0.00     0.011 C 
ATOM      5  C5  <0> d          -1.996   1.984  -0.801  0.00  0.00     0.217 C 
ATOM      6  O1  <0> d          -2.823   2.435  -1.565  0.00  0.00    -0.274 OA
ATOM      7  N1  <0> d          -0.759   1.590  -1.151  0.00  0.00    -0.357 N 
ATOM      8  H5  <0> d          -0.761   0.865   2.050  0.00  0.00     0.036 H 
ATOM      9  H6  <0> d          -0.365   2.554   1.589  0.00  0.00     0.036 H 
ATOM     10  H7  <0> d          -2.680   2.662   1.123  0.00  0.00     0.047 H 
ATOM     11  H8  <0> d          -2.804   0.893   0.868  0.00  0.00     0.047 H 
ATOM     12  H9  <0> d          -0.405   1.633  -2.053  0.00  0.00     0.162 HD
ENDROOT
BRANCH   1  13
ATOM     13  C1  <0> d           1.416   1.634  -0.003  0.00  0.00    -0.057 C 
ATOM     14  H2  <0> d           1.387   2.724  -0.009  0.00  0.00     0.030 H 
ATOM     15  H3  <0> d           1.944   1.290   0.887  0.00  0.00     0.030 H 
ATOM     16  H4  <0> d           1.934   1.279  -0.893  0.00  0.00     0.030 H 
ENDBRANCH   1  13
TORSDOF 1
