REMARK  2 active torsions:
REMARK  status: ('A' for Active; 'I' for Inactive)
REMARK    1  A    between atoms: C3_3  and  C7_9 
REMARK    2  A    between atoms: C7_9  and  C8_10 
ROOT
ATOM      1  C1  <0> d           4.213   5.527  -0.225  0.00  0.00    -0.059 C 
ATOM      2  C2  <0> d           2.756   5.072  -0.123  0.00  0.00    -0.060 C 
ATOM      3  C3  <0> d           2.696   3.548  -0.005  0.00  0.00    -0.039 C 
ATOM      4  H1  <0> d           3.210   3.097  -0.854  0.00  0.00     0.041 H 
ATOM      5  C4  <0> d           3.377   3.111   1.296  0.00  0.00    -0.006 C 
ATOM      6  C5  <0> d           4.777   3.683   1.322  0.00  0.00     0.127 C 
ATOM      7  O1  <0> d           5.731   2.976   1.540  0.00  0.00    -0.298 OA
ATOM      8  C6  <0> d           4.951   5.165   1.068  0.00  0.00    -0.010 C 
ATOM      9  H2  <0> d           4.691   5.029  -1.068  0.00  0.00     0.033 H 
ATOM     10  H3  <0> d           4.247   6.606  -0.372  0.00  0.00     0.033 H 
ATOM     11  H4  <0> d           2.215   5.388  -1.014  0.00  0.00     0.033 H 
ATOM     12  H5  <0> d           2.297   5.522   0.757  0.00  0.00     0.033 H 
ATOM     13  H6  <0> d           2.853   3.451   2.078  0.00  0.00     0.044 H 
ATOM     14  H7  <0> d           3.426   2.023   1.337  0.00  0.00     0.044 H 
ATOM     15  H8  <0> d           5.922   5.384   0.971  0.00  0.00     0.044 H 
ATOM     16  H9  <0> d           4.532   5.730   1.900  0.00  0.00     0.044 H 
ENDROOT
BRANCH   3  17
ATOM     17  C7  <0> d           1.235   3.094   0.007  0.00  0.00     0.019 C 
ATOM     18  H10 <0> d           0.727   3.482  -0.876  0.00  0.00     0.049 H 
ATOM     19  H11 <0> d           0.744   3.473   0.904  0.00  0.00     0.049 H 
BRANCH  17  20
ATOM     20  C8  <0> d           1.177   1.588  -0.001  0.00  0.00     0.172 C 
ATOM     21  O2  <0> d           2.199   0.944  -0.014  0.00  0.00    -0.648 OA
ATOM     22  O3  <0> d          -0.011   0.963   0.007  0.00  0.00    -0.648 OA
ENDBRANCH  17  20
ENDBRANCH   3  17
TORSDOF 2
