REMARK  5 active torsions:
REMARK  status: ('A' for Active; 'I' for Inactive)
REMARK    1  A    between atoms: C1_1  and  O1_2 
REMARK    2  A    between atoms: O1_2  and  C2_3 
REMARK    3  A    between atoms: C3_4  and  O4_11 
REMARK    4  A    between atoms: C5_6  and  O3_10 
REMARK    5  A    between atoms: C7_8  and  O2_9 
ROOT
ATOM      1  C2  <0> d           0.607  -0.608  -1.058  0.00  0.00     0.134 A 
ATOM      2  C3  <0> d          -0.130  -0.923  -2.193  0.00  0.00     0.104 A 
ATOM      3  C4  <0> d           0.487  -1.538  -3.271  0.00  0.00    -0.016 A 
ATOM      4  C5  <0> d           1.839  -1.840  -3.217  0.00  0.00     0.071 A 
ATOM      5  C6  <0> d           2.576  -1.527  -2.085  0.00  0.00    -0.016 A 
ATOM      6  C7  <0> d           1.963  -0.906  -1.008  0.00  0.00     0.104 A 
ATOM      7  H4  <0> d          -0.086  -1.782  -4.154  0.00  0.00     0.092 H 
ATOM      8  H5  <0> d           3.630  -1.763  -2.044  0.00  0.00     0.092 H 
ENDROOT
BRANCH   1   9
ATOM      9  O1  <0> d           0.002  -0.004   0.002  0.00  0.00    -0.351 OA
BRANCH   9  10
ATOM     10  C1  <0> d          -0.017   1.425   0.010  0.00  0.00     0.011 C 
ATOM     11  H1  <0> d           1.005   1.802   0.002  0.00  0.00     0.067 H 
ATOM     12  H2  <0> d          -0.544   1.786  -0.873  0.00  0.00     0.067 H 
ATOM     13  H3  <0> d          -0.527   1.776   0.907  0.00  0.00     0.067 H 
ENDBRANCH   9  10
ENDBRANCH   1   9
BRANCH   6  14
ATOM     14  O2  <0> d           2.688  -0.594   0.100  0.00  0.00    -0.358 OA
ATOM     15  H6  <0> d           2.711  -1.295   0.766  0.00  0.00     0.217 HD
ENDBRANCH   6  14
BRANCH   2  16
ATOM     16  O4  <0> d          -1.457  -0.628  -2.246  0.00  0.00    -0.358 OA
ATOM     17  H8  <0> d          -1.650   0.250  -2.604  0.00  0.00     0.217 HD
ENDBRANCH   2  16
BRANCH   4  18
ATOM     18  O3  <0> d           2.443  -2.444  -4.275  0.00  0.00    -0.361 OA
ATOM     19  H7  <0> d           2.808  -1.828  -4.924  0.00  0.00     0.217 HD
ENDBRANCH   4  18
TORSDOF 5
