REMARK  4 active torsions:
REMARK  status: ('A' for Active; 'I' for Inactive)
REMARK    1  A    between atoms: C2_2  and  C3_3 
REMARK    2  A    between atoms: C3_3  and  C4_5 
REMARK    3  A    between atoms: C3_3  and  O2_7 
REMARK    4  A    between atoms: C4_5  and  O1_6 
ROOT
ATOM      1  C3  <0> d          -0.729   1.579   1.267  0.00  0.00     0.071 C 
ATOM      2  H1  <0> d          -1.776   1.277   1.232  0.00  0.00     0.092 H 
ENDROOT
BRANCH   1   3
ATOM      3  C2  <0> d          -0.074   0.981   2.485  0.00  0.00    -0.083 C 
ATOM      4  C1  <0> d           0.367   1.760   3.441  0.00  0.00    -0.122 C 
ATOM      5  H2  <0> d           0.261   2.831   3.357  0.00  0.00     0.066 H 
ATOM      6  H3  <0> d           0.837   1.331   4.314  0.00  0.00     0.066 H 
ATOM      7  H4  <0> d           0.032  -0.091   2.569  0.00  0.00     0.079 H 
ENDBRANCH   1   3
BRANCH   1   8
ATOM      8  C4  <0> d          -0.013   1.086   0.008  0.00  0.00     0.043 C 
ATOM      9  H5  <0> d           0.002  -0.004   0.002  0.00  0.00     0.078 H 
ATOM     10  H6  <0> d           1.010   1.463   0.000  0.00  0.00     0.078 H 
BRANCH   8  11
ATOM     11  O1  <0> d          -0.704   1.559  -1.150  0.00  0.00    -0.398 OA
ATOM     12  H7  <0> d          -0.304   1.284  -1.986  0.00  0.00     0.209 HD
ENDBRANCH   8  11
ENDBRANCH   1   8
BRANCH   1  13
ATOM     13  O2  <0> d          -0.647   3.004   1.334  0.00  0.00    -0.390 OA
ATOM     14  H8  <0> d           0.258   3.345   1.368  0.00  0.00     0.210 HD
ENDBRANCH   1  13
TORSDOF 4
