REMARK  4 active torsions:
REMARK  status: ('A' for Active; 'I' for Inactive)
REMARK    1  A    between atoms: C1_1  and  C2_2 
REMARK    2  A    between atoms: C5_5  and  C8_9 
REMARK    3  A    between atoms: C6_6  and  C7_8 
REMARK    4  A    between atoms: C8_9  and  O1_10 
ROOT
ATOM      1  C2  <0> d          -0.018   1.503   0.010  0.00  0.00     0.031 A 
ATOM      2  C3  <0> d           1.174   2.202   0.003  0.00  0.00    -0.059 A 
ATOM      3  C4  <0> d           1.144   3.588   0.010  0.00  0.00    -0.071 A 
ATOM      4  C5  <0> d          -0.089   4.222   0.025  0.00  0.00    -0.011 A 
ATOM      5  C6  <0> d          -1.240   3.456   0.032  0.00  0.00     0.039 A 
ATOM      6  N1  <0> d          -1.173   2.139   0.019  0.00  0.00    -0.258 NA
ATOM      7  H4  <0> d           2.117   1.676  -0.008  0.00  0.00     0.086 H 
ATOM      8  H5  <0> d           2.060   4.161   0.005  0.00  0.00     0.084 H 
ENDROOT
BRANCH   4   9
ATOM      9  C8  <0> d          -0.174   5.726   0.033  0.00  0.00     0.042 C 
ATOM     10  H9  <0> d          -0.716   6.064  -0.851  0.00  0.00     0.081 H 
ATOM     11  H10 <0> d          -0.699   6.056   0.929  0.00  0.00     0.081 H 
BRANCH   9  12
ATOM     12  O1  <0> d           1.144   6.278   0.023  0.00  0.00    -0.396 OA
ATOM     13  H11 <0> d           1.166   7.245   0.027  0.00  0.00     0.209 HD
ENDBRANCH   9  12
ENDBRANCH   4   9
BRANCH   5  14
ATOM     14  C7  <0> d          -2.586   4.134   0.048  0.00  0.00    -0.035 C 
ATOM     15  H6  <0> d          -2.920   4.302  -0.976  0.00  0.00     0.035 H 
ATOM     16  H7  <0> d          -3.305   3.500   0.565  0.00  0.00     0.035 H 
ATOM     17  H8  <0> d          -2.505   5.089   0.566  0.00  0.00     0.035 H 
ENDBRANCH   5  14
BRANCH   1  18
ATOM     18  C1  <0> d           0.002  -0.004   0.002  0.00  0.00    -0.035 C 
ATOM     19  H1  <0> d           0.017  -0.373   1.028  0.00  0.00     0.035 H 
ATOM     20  H2  <0> d          -0.888  -0.377  -0.505  0.00  0.00     0.035 H 
ATOM     21  H3  <0> d           0.892  -0.352  -0.522  0.00  0.00     0.035 H 
ENDBRANCH   1  18
TORSDOF 4
