REMARK  0 active torsions:
REMARK  status: ('A' for Active; 'I' for Inactive)
ROOT
ATOM      1  C1  <0> d           1.151   3.159   0.011  0.00  0.00    -0.082 A 
ATOM      2  C2  <0> d           1.175   1.775   0.000  0.00  0.00    -0.082 A 
ATOM      3  C3  <0> d          -0.013   1.076   0.008  0.00  0.00    -0.066 A 
ATOM      4  C4  <0> d          -1.234   1.751   0.017  0.00  0.00     0.006 A 
ATOM      5  C5  <0> d          -1.261   3.133   0.050  0.00  0.00    -0.041 A 
ATOM      6  C6  <0> d          -0.053   3.828   0.038  0.00  0.00    -0.076 A 
ATOM      7  C7  <0> d          -2.511   3.960   0.104  0.00  0.00    -0.039 C 
ATOM      8  C8  <0> d          -3.736   3.251  -0.446  0.00  0.00    -0.053 C 
ATOM      9  C9  <0> d          -4.009   1.994   0.394  0.00  0.00    -0.018 C 
ATOM     10  S1  <0> d          -2.712   0.787  -0.011  0.00  0.00    -0.129 SA
ATOM     11  H1  <0> d           2.076   3.714  -0.002  0.00  0.00     0.083 H 
ATOM     12  H2  <0> d           2.117   1.248  -0.014  0.00  0.00     0.083 H 
ATOM     13  H3  <0> d           0.002  -0.004   0.002  0.00  0.00     0.085 H 
ATOM     14  H4  <0> d          -0.061   4.908   0.051  0.00  0.00     0.084 H 
ATOM     15  H5  <0> d          -2.703   4.234   1.141  0.00  0.00     0.040 H 
ATOM     16  H6  <0> d          -2.350   4.873  -0.470  0.00  0.00     0.040 H 
ATOM     17  H7  <0> d          -4.597   3.918  -0.394  0.00  0.00     0.034 H 
ATOM     18  H8  <0> d          -3.557   2.965  -1.482  0.00  0.00     0.034 H 
ATOM     19  H9  <0> d          -3.968   2.241   1.455  0.00  0.00     0.049 H 
ATOM     20  H10 <0> d          -4.988   1.587   0.145  0.00  0.00     0.049 H 
ENDROOT
TORSDOF 0
