REMARK  2 active torsions:
REMARK  status: ('A' for Active; 'I' for Inactive)
REMARK    1  A    between atoms: C1_1  and  C2_2 
REMARK    2  A    between atoms: C3_3  and  C5_9 
ROOT
ATOM      1  C2  <0> d           1.287  -0.404  -0.012  0.00  0.00     0.032 A 
ATOM      2  C3  <0> d           0.002  -0.004   0.002  0.00  0.00     0.056 A 
ATOM      3  N1  <0> d          -0.016   1.338   0.009  0.00  0.00    -0.223 NA
ATOM      4  C4  <0> d           1.211   1.785   0.000  0.00  0.00     0.201 A 
ATOM      5  N2  <0> d           2.056   0.731  -0.014  0.00  0.00    -0.333 N 
ATOM      6  H1  <0> d           3.153   0.652  -0.025  0.00  0.00     0.168 HD
ATOM      7 Cl1  <0> d           1.679   3.457   0.004  0.00  0.00    -0.043 Cl
ENDROOT
BRANCH   1   8
ATOM      8  C1  <0> d           1.786  -1.826  -0.025  0.00  0.00    -0.035 C 
ATOM      9  H2  <0> d           0.928  -2.515  -0.021  0.00  0.00     0.035 H 
ATOM     10  H3  <0> d           2.405  -2.005   0.866  0.00  0.00     0.035 H 
ATOM     11  H4  <0> d           2.388  -1.995  -0.930  0.00  0.00     0.035 H 
ENDBRANCH   1   8
BRANCH   2  12
ATOM     12  C5  <0> d          -1.205  -0.906   0.009  0.00  0.00    -0.034 C 
ATOM     13  H5  <0> d          -2.120  -0.294   0.021  0.00  0.00     0.035 H 
ATOM     14  H6  <0> d          -1.180  -1.545   0.904  0.00  0.00     0.035 H 
ATOM     15  H7  <0> d          -1.198  -1.536  -0.892  0.00  0.00     0.035 H 
ENDBRANCH   2  12
TORSDOF 2
