REMARK  2 active torsions:
REMARK  status: ('A' for Active; 'I' for Inactive)
REMARK    1  A    between atoms: C1_1  and  O1_2 
REMARK    2  A    between atoms: O1_2  and  C2_3 
ROOT
ATOM      1  C2  <0> d           1.696   2.032  -0.003  0.00  0.00     0.207 A 
ATOM      2  N1  <0> d           2.156   0.797  -0.014  0.00  0.00    -0.230 NA
ATOM      3  C3  <0> d           1.337  -0.237  -0.012  0.00  0.00     0.012 A 
ATOM      4  C4  <0> d           0.002  -0.004   0.002  0.00  0.00    -0.024 A 
ATOM      5  S1  <0> d          -0.022   1.783   0.012  0.00  0.00    -0.055 SA
ATOM      6  H4  <0> d           1.721  -1.247  -0.021  0.00  0.00     0.115 H 
ATOM      7  H5  <0> d          -0.820  -0.705   0.006  0.00  0.00     0.097 H 
ENDROOT
BRANCH   1   8
ATOM      8  O1  <0> d           2.388   3.198  -0.004  0.00  0.00    -0.334 OA
BRANCH   8   9
ATOM      9  C1  <0> d           3.814   3.107  -0.018  0.00  0.00     0.012 C 
ATOM     10  H1  <0> d           4.152   2.566   0.866  0.00  0.00     0.067 H 
ATOM     11  H2  <0> d           4.135   2.575  -0.914  0.00  0.00     0.067 H 
ATOM     12  H3  <0> d           4.242   4.109  -0.017  0.00  0.00     0.067 H 
ENDBRANCH   8   9
ENDBRANCH   1   8
TORSDOF 2
