REMARK  1 active torsions:
REMARK  status: ('A' for Active; 'I' for Inactive)
REMARK    1  A    between atoms: C2_3  and  N5_10 
ROOT
ATOM      1  C1  <0> d           0.002  -0.004   0.002  0.00  0.00     0.090 A 
ATOM      2  N1  <0> d           1.139  -0.678  -0.012  0.00  0.00    -0.222 NA
ATOM      3  C2  <0> d           2.317  -0.077  -0.020  0.00  0.00     0.156 A 
ATOM      4  C3  <0> d           2.369   1.345  -0.013  0.00  0.00     0.162 A 
ATOM      5  C4  <0> d           1.110   1.993   0.002  0.00  0.00     0.153 A 
ATOM      6  N2  <0> d          -0.016   1.316   0.009  0.00  0.00    -0.231 NA
ATOM      7  S1  <0> d           1.589   3.700   0.007  0.00  0.00     0.057 SA
ATOM      8  N3  <0> d           3.286   3.459  -0.011  0.00  0.00    -0.108 NA
ATOM      9  N4  <0> d           3.412   2.178  -0.019  0.00  0.00    -0.136 NA
ATOM     10  H1  <0> d          -0.933  -0.545   0.008  0.00  0.00     0.146 H 
ENDROOT
BRANCH   3  11
ATOM     11  N5  <0> d           3.482  -0.820  -0.035  0.00  0.00    -0.382 N 
ATOM     12  H2  <0> d           3.440  -1.789  -0.040  0.00  0.00     0.157 HD
ATOM     13  H3  <0> d           4.343  -0.372  -0.041  0.00  0.00     0.157 HD
ENDBRANCH   3  11
TORSDOF 1
