REMARK  2 active torsions:
REMARK  status: ('A' for Active; 'I' for Inactive)
REMARK    1  A    between atoms: C2_2  and  C4_7 
REMARK    2  A    between atoms: C4_7  and  O1_8 
ROOT
ATOM      1  C1  <0> d          -0.077   3.646   0.022  0.00  0.00    -0.016 A 
ATOM      2  C2  <0> d           1.147   3.062   0.008  0.00  0.00     0.066 A 
ATOM      3  N1  <0> d           2.211   3.839   0.007  0.00  0.00    -0.231 NA
ATOM      4  C3  <0> d           2.103   5.148   0.009  0.00  0.00     0.167 A 
ATOM      5  S1  <0> d           0.381   5.373   0.027  0.00  0.00    -0.068 SA
ATOM      6 Cl1  <0> d           3.360   6.346   0.005  0.00  0.00    -0.054 Cl
ATOM      7  H1  <0> d          -1.058   3.193   0.029  0.00  0.00     0.098 H 
ENDROOT
BRANCH   2   8
ATOM      8  C4  <0> d           1.286   1.562  -0.002  0.00  0.00     0.057 C 
ATOM      9  H2  <0> d           1.840   1.243   0.881  0.00  0.00     0.083 H 
ATOM     10  H3  <0> d           1.823   1.252  -0.899  0.00  0.00     0.083 H 
BRANCH   8  11
ATOM     11  O1  <0> d          -0.011   0.963   0.007  0.00  0.00    -0.395 OA
ATOM     12  H4  <0> d           0.002  -0.004   0.002  0.00  0.00     0.209 HD
ENDBRANCH   8  11
ENDBRANCH   2   8
TORSDOF 2
