REMARK  1 active torsions:
REMARK  status: ('A' for Active; 'I' for Inactive)
REMARK    1  A    between atoms: C2_2  and  N1_3 
ROOT
ATOM      1  N1  <0> d           1.303  -0.374  -0.012  0.00  0.00    -0.172 N 
ATOM      2  C3  <0> d           0.002  -0.004   0.002  0.00  0.00     0.389 A 
ATOM      3  O1  <0> d          -0.964  -0.744   0.007  0.00  0.00    -0.241 OA
ATOM      4  N2  <0> d          -0.016   1.343   0.009  0.00  0.00    -0.067 NA
ATOM      5  N3  <0> d           1.186   1.796   0.000  0.00  0.00    -0.019 NA
ATOM      6  N4  <0> d           2.034   0.826  -0.013  0.00  0.00    -0.037 NA
ENDROOT
BRANCH   1   7
ATOM      7  C2  <0> d           1.811  -1.669  -0.025  0.00  0.00     0.002 C 
ATOM      8  C1  <0> d           3.115  -1.866  -0.038  0.00  0.00    -0.105 C 
ATOM      9  H1  <0> d           3.517  -2.890  -0.048  0.00  0.00     0.068 H 
ATOM     10  H2  <0> d           3.802  -1.007  -0.040  0.00  0.00     0.068 H 
ATOM     11  H3  <0> d           1.125  -2.529  -0.023  0.00  0.00     0.113 H 
ENDBRANCH   1   7
TORSDOF 1
