REMARK  2 active torsions:
REMARK  status: ('A' for Active; 'I' for Inactive)
REMARK    1  A    between atoms: C2_2  and  C3_3 
REMARK    2  A    between atoms: C3_3  and  C4_4 
ROOT
ATOM      1  C3  <0> d          -1.176   3.222   0.025  0.00  0.00     0.030 C 
ATOM      2  H4  <0> d          -1.611   3.575   0.961  0.00  0.00     0.055 H 
ATOM      3  H5  <0> d          -0.158   3.600  -0.067  0.00  0.00     0.055 H 
ENDROOT
BRANCH   1   4
ATOM      4  C2  <0> d          -1.156   1.715   0.017  0.00  0.00    -0.102 C 
ATOM      5  C1  <0> d          -0.013   1.076   0.008  0.00  0.00    -0.124 C 
ATOM      6  H1  <0> d           0.002  -0.004   0.002  0.00  0.00     0.066 H 
ATOM      7  H2  <0> d           0.915   1.629   0.002  0.00  0.00     0.066 H 
ATOM      8  H3  <0> d          -2.084   1.163   0.018  0.00  0.00     0.076 H 
ENDBRANCH   1   4
BRANCH   1   9
ATOM      9  C4  <0> d          -2.003   3.720  -1.132  0.00  0.00     0.176 C 
ATOM     10  O1  <0> d          -2.523   2.932  -1.886  0.00  0.00    -0.648 OA
ATOM     11  O2  <0> d          -2.163   5.038  -1.325  0.00  0.00    -0.648 OA
ENDBRANCH   1   9
TORSDOF 2
