REMARK  3 active torsions:
REMARK  status: ('A' for Active; 'I' for Inactive)
REMARK    1  A    between atoms: C1_1  and  C2_2 
REMARK    2  A    between atoms: N2_6  and  C5_7 
REMARK    3  A    between atoms: C5_7  and  C6_8 
REMARK       I    between atoms: C6_8  and  N3_10 
ROOT
ATOM      1  C2  <0> d           0.002  -0.004   0.002  0.00  0.00     0.028 A 
ATOM      2  C3  <0> d           0.008  -0.796  -1.095  0.00  0.00    -0.041 A 
ATOM      3  C4  <0> d           0.029  -2.127  -0.666  0.00  0.00     0.024 A 
ATOM      4  N1  <0> d           0.034  -2.134   0.643  0.00  0.00    -0.184 NA
ATOM      5  N2  <0> d           0.023  -0.805   1.088  0.00  0.00    -0.266 N 
ATOM      6  H4  <0> d          -0.001  -0.460  -2.122  0.00  0.00     0.088 H 
ATOM      7  H5  <0> d           0.038  -2.998  -1.304  0.00  0.00     0.117 H 
ENDROOT
BRANCH   5   8
ATOM      8  C5  <0> d           0.030  -0.364   2.485  0.00  0.00     0.090 C 
ATOM      9  H6  <0> d           0.560  -1.096   3.094  0.00  0.00     0.082 H 
ATOM     10  H7  <0> d           0.531   0.601   2.558  0.00  0.00     0.082 H 
BRANCH   8  11
ATOM     11  C6  <0> d          -1.388  -0.233   2.977  0.00  0.00     0.235 C 
ATOM     12  O1  <0> d          -2.314  -0.483   2.234  0.00  0.00    -0.272 OA
ATOM     13  N3  <0> d          -1.629   0.163   4.242  0.00  0.00    -0.369 N 
ATOM     14  H8  <0> d          -0.888   0.363   4.837  0.00  0.00     0.159 HD
ATOM     15  H9  <0> d          -2.541   0.247   4.559  0.00  0.00     0.159 HD
ENDBRANCH   8  11
ENDBRANCH   5   8
BRANCH   1  16
ATOM     16  C1  <0> d          -0.018   1.503   0.010  0.00  0.00    -0.036 C 
ATOM     17  H1  <0> d           1.004   1.880   0.003  0.00  0.00     0.035 H 
ATOM     18  H2  <0> d          -0.545   1.864  -0.873  0.00  0.00     0.035 H 
ATOM     19  H3  <0> d          -0.529   1.854   0.907  0.00  0.00     0.035 H 
ENDBRANCH   1  16
TORSDOF 3
