REMARK  4 active torsions:
REMARK  status: ('A' for Active; 'I' for Inactive)
REMARK    1  A    between atoms: C1_1  and  C2_2 
REMARK    2  A    between atoms: C2_2  and  C3_3 
REMARK    3  A    between atoms: C2_2  and  N1_4 
REMARK    4  A    between atoms: N1_4  and  C4_5 
ROOT
ATOM      1  N1  <0> d           2.272   3.951   0.002  0.00  0.00    -0.385 N 
ATOM      2  H8  <0> d           3.139   3.515  -0.008  0.00  0.00     0.160 HD
ENDROOT
BRANCH   1   3
ATOM      3  C2  <0> d           2.188   5.413   0.010  0.00  0.00     0.003 C 
ATOM      4  H4  <0> d           1.332   5.725   0.608  0.00  0.00     0.071 H 
BRANCH   3   5
ATOM      5  C1  <0> d           3.470   5.995   0.611  0.00  0.00    -0.058 C 
ATOM      6  H1  <0> d           4.325   5.683   0.012  0.00  0.00     0.030 H 
ATOM      7  H2  <0> d           3.407   7.083   0.617  0.00  0.00     0.030 H 
ATOM      8  H3  <0> d           3.589   5.632   1.632  0.00  0.00     0.030 H 
ENDBRANCH   3   5
BRANCH   3   9
ATOM      9  C3  <0> d           2.021   5.923  -1.423  0.00  0.00    -0.058 C 
ATOM     10  H5  <0> d           2.877   5.611  -2.022  0.00  0.00     0.030 H 
ATOM     11  H6  <0> d           1.108   5.508  -1.852  0.00  0.00     0.030 H 
ATOM     12  H7  <0> d           1.958   7.011  -1.417  0.00  0.00     0.030 H 
ENDBRANCH   3   9
ENDBRANCH   1   3
BRANCH   1  13
ATOM     13  C4  <0> d           1.105   3.184   0.008  0.00  0.00     0.046 A 
ATOM     14  C8  <0> d          -0.141   3.797   0.023  0.00  0.00     0.027 A 
ATOM     15  N2  <0> d          -1.245   3.077   0.030  0.00  0.00    -0.271 NA
ATOM     16  H12 <0> d          -0.206   4.875   0.029  0.00  0.00     0.118 H 
ATOM     17  C7  <0> d          -1.215   1.759   0.017  0.00  0.00     0.002 A 
ATOM     18  C6  <0> d          -0.013   1.076   0.008  0.00  0.00    -0.064 A 
ATOM     19  H11 <0> d          -2.142   1.205   0.019  0.00  0.00     0.114 H 
ATOM     20  C5  <0> d           1.173   1.792   0.001  0.00  0.00    -0.055 A 
ATOM     21  H10 <0> d           0.002  -0.004   0.002  0.00  0.00     0.085 H 
ATOM     22  H9  <0> d           2.126   1.285  -0.011  0.00  0.00     0.087 H 
ENDBRANCH   1  13
TORSDOF 4
