REMARK  0 active torsions:
REMARK  status: ('A' for Active; 'I' for Inactive)
ROOT
ATOM      1  C1  <0> d           1.377   2.104   0.000  0.00  0.00    -0.065 C 
ATOM      2  C2  <0> d           2.161   1.824   1.282  0.00  0.00    -0.065 C 
ATOM      3  C3  <0> d           1.429   2.507   2.460  0.00  0.00    -0.057 C 
ATOM      4  C4  <0> d           0.807   1.397   3.324  0.00  0.00     0.009 C 
ATOM      5  C5  <0> d          -0.658   1.252   3.026  0.00  0.00     0.217 C 
ATOM      6  O1  <0> d          -1.464   1.983   3.562  0.00  0.00    -0.274 OA
ATOM      7  N1  <0> d          -1.072   0.309   2.162  0.00  0.00    -0.361 N 
ATOM      8  C6  <0> d          -0.063  -0.493   1.456  0.00  0.00    -0.005 C 
ATOM      9  C7  <0> d           0.002  -0.004   0.002  0.00  0.00    -0.050 C 
ATOM     10  C8  <0> d          -0.019   1.526   0.010  0.00  0.00    -0.064 C 
ATOM     11  H1  <0> d           1.924   1.681  -0.843  0.00  0.00     0.033 H 
ATOM     12  H2  <0> d           1.308   3.183  -0.138  0.00  0.00     0.033 H 
ATOM     13  H3  <0> d           3.169   2.229   1.192  0.00  0.00     0.033 H 
ATOM     14  H4  <0> d           2.212   0.749   1.455  0.00  0.00     0.033 H 
ATOM     15  H5  <0> d           0.645   3.163   2.079  0.00  0.00     0.033 H 
ATOM     16  H6  <0> d           2.138   3.085   3.053  0.00  0.00     0.033 H 
ATOM     17  H7  <0> d           0.936   1.647   4.377  0.00  0.00     0.047 H 
ATOM     18  H8  <0> d           1.311   0.454   3.114  0.00  0.00     0.047 H 
ATOM     19  H9  <0> d          -2.018   0.160   2.008  0.00  0.00     0.162 HD
ATOM     20  H10 <0> d          -0.347  -1.545   1.479  0.00  0.00     0.064 H 
ATOM     21  H11 <0> d           0.909  -0.365   1.932  0.00  0.00     0.064 H 
ATOM     22  H12 <0> d          -0.858  -0.380  -0.551  0.00  0.00     0.035 H 
ATOM     23  H13 <0> d           0.922  -0.357  -0.464  0.00  0.00     0.035 H 
ATOM     24  H14 <0> d          -0.556   1.879  -0.870  0.00  0.00     0.033 H 
ATOM     25  H15 <0> d          -0.539   1.869   0.904  0.00  0.00     0.033 H 
ENDROOT
TORSDOF 0
