REMARK  1 active torsions:
REMARK  status: ('A' for Active; 'I' for Inactive)
REMARK    1  A    between atoms: C1_1  and  C2_2 
ROOT
ATOM      1  C2  <0> d           1.160   1.653  -0.000  0.00  0.00     0.008 A 
ATOM      2  C3  <0> d           1.167   3.006   0.007  0.00  0.00    -0.061 A 
ATOM      3  C4  <0> d          -0.044   3.712   0.022  0.00  0.00    -0.076 A 
ATOM      4  C5  <0> d          -1.220   3.021   0.030  0.00  0.00    -0.017 A 
ATOM      5  C6  <0> d          -1.191   1.615   0.017  0.00  0.00     0.245 A 
ATOM      6  O1  <0> d          -2.235   0.984   0.018  0.00  0.00    -0.268 OA
ATOM      7  N1  <0> d          -0.011   0.966   0.007  0.00  0.00    -0.328 N 
ATOM      8  H1  <0> d           0.002  -0.004   0.002  0.00  0.00     0.169 HD
ATOM      9  H5  <0> d           2.105   3.542   0.001  0.00  0.00     0.086 H 
ATOM     10  H6  <0> d          -0.046   4.793   0.027  0.00  0.00     0.083 H 
ATOM     11  H7  <0> d          -2.163   3.547   0.042  0.00  0.00     0.092 H 
ENDROOT
BRANCH   1  12
ATOM     12  C1  <0> d           2.466   0.901  -0.017  0.00  0.00    -0.037 C 
ATOM     13  H2  <0> d           2.771   0.725  -1.048  0.00  0.00     0.035 H 
ATOM     14  H3  <0> d           3.229   1.488   0.493  0.00  0.00     0.035 H 
ATOM     15  H4  <0> d           2.341  -0.055   0.493  0.00  0.00     0.035 H 
ENDBRANCH   1  12
TORSDOF 1
