REMARK  2 active torsions:
REMARK  status: ('A' for Active; 'I' for Inactive)
REMARK    1  A    between atoms: C5_6  and  C6_7 
REMARK    2  A    between atoms: C6_7  and  O1_8 
ROOT
ATOM      1  C1  <0> d          -1.236   3.401   0.032  0.00  0.00    -0.069 A 
ATOM      2  C2  <0> d          -1.229   2.016   0.019  0.00  0.00    -0.026 A 
ATOM      3  C3  <0> d          -0.016   1.347   0.009  0.00  0.00     0.209 A 
ATOM      4  N1  <0> d           1.122   2.016   0.002  0.00  0.00    -0.232 NA
ATOM      5  C4  <0> d           1.151   3.334   0.009  0.00  0.00     0.013 A 
ATOM      6  C5  <0> d          -0.019   4.068   0.024  0.00  0.00    -0.017 A 
ATOM      7  F1  <0> d           0.002  -0.004   0.002  0.00  0.00    -0.184 F 
ATOM      8  H1  <0> d          -2.166   3.949   0.044  0.00  0.00     0.084 H 
ATOM      9  H2  <0> d          -2.158   1.464   0.020  0.00  0.00     0.090 H 
ATOM     10  H3  <0> d           2.102   3.847   0.003  0.00  0.00     0.115 H 
ENDROOT
BRANCH   6  11
ATOM     11  C6  <0> d           0.025   5.574   0.032  0.00  0.00     0.042 C 
ATOM     12  H4  <0> d          -0.850   5.960   0.556  0.00  0.00     0.081 H 
ATOM     13  H5  <0> d           0.930   5.908   0.540  0.00  0.00     0.081 H 
BRANCH  11  14
ATOM     14  O1  <0> d           0.026   6.058  -1.312  0.00  0.00    -0.396 OA
ATOM     15  H6  <0> d           0.053   7.022  -1.383  0.00  0.00     0.209 HD
ENDBRANCH  11  14
ENDBRANCH   6  11
TORSDOF 2
