REMARK  4 active torsions:
REMARK  status: ('A' for Active; 'I' for Inactive)
REMARK    1  A    between atoms: C1_1  and  C2_2 
REMARK    2  A    between atoms: C2_2  and  C3_4 
REMARK    3  A    between atoms: C7_8  and  O2_10 
REMARK    4  A    between atoms: O2_10  and  C8_11 
ROOT
ATOM      1  C3  <0> d           0.002  -0.004   0.002  0.00  0.00     0.104 A 
ATOM      2  C4  <0> d           1.212  -0.697  -0.013  0.00  0.00    -0.051 A 
ATOM      3  C5  <0> d           2.400   0.018  -0.021  0.00  0.00    -0.076 A 
ATOM      4  C6  <0> d           2.341   1.401  -0.013  0.00  0.00    -0.032 A 
ATOM      5  C7  <0> d           1.098   2.031   0.003  0.00  0.00     0.164 A 
ATOM      6  N1  <0> d          -0.016   1.326   0.009  0.00  0.00    -0.221 NA
ATOM      7  H4  <0> d           1.223  -1.777  -0.019  0.00  0.00     0.087 H 
ATOM      8  H5  <0> d           3.352  -0.493  -0.033  0.00  0.00     0.083 H 
ATOM      9  H6  <0> d           3.249   1.986  -0.018  0.00  0.00     0.090 H 
ENDROOT
BRANCH   1  10
ATOM     10  C2  <0> d          -1.269  -0.753   0.011  0.00  0.00     0.174 C 
ATOM     11  O1  <0> d          -1.259  -1.965   0.004  0.00  0.00    -0.291 OA
BRANCH  10  12
ATOM     12  C1  <0> d          -2.580  -0.010   0.028  0.00  0.00    -0.015 C 
ATOM     13  H1  <0> d          -2.389   1.073   0.032  0.00  0.00     0.038 H 
ATOM     14  H2  <0> d          -3.146  -0.286   0.930  0.00  0.00     0.038 H 
ATOM     15  H3  <0> d          -3.164  -0.276  -0.866  0.00  0.00     0.038 H 
ENDBRANCH  10  12
ENDBRANCH   1  10
BRANCH   5  16
ATOM     16  O2  <0> d           1.034   3.386   0.010  0.00  0.00    -0.339 OA
BRANCH  16  17
ATOM     17  C8  <0> d          -0.269   3.974   0.026  0.00  0.00     0.012 C 
ATOM     18  H7  <0> d          -0.176   5.070   0.031  0.00  0.00     0.067 H 
ATOM     19  H8  <0> d          -0.807   3.647   0.928  0.00  0.00     0.067 H 
ATOM     20  H9  <0> d          -0.825   3.656  -0.869  0.00  0.00     0.067 H 
ENDBRANCH  16  17
ENDBRANCH   5  16
TORSDOF 4
