REMARK  4 active torsions:
REMARK  status: ('A' for Active; 'I' for Inactive)
REMARK    1  A    between atoms: C1_1  and  C2_2 
REMARK    2  A    between atoms: C4_5  and  O4_14 
REMARK    3  A    between atoms: C5_7  and  O3_13 
REMARK    4  A    between atoms: C6_9  and  O2_12 
ROOT
ATOM      1  C2  <0> d          -0.013   1.086   0.008  0.00  0.00     0.040 C 
ATOM      2  H1  <0> d           0.002  -0.004   0.002  0.00  0.00     0.083 H 
ATOM      3  C3  <0> d           1.423   1.616  -0.003  0.00  0.00    -0.015 C 
ATOM      4  C4  <0> d           1.395   3.146   0.066  0.00  0.00     0.067 C 
ATOM      5  H2  <0> d           0.898   3.542  -0.819  0.00  0.00     0.087 H 
ATOM      6  C5  <0> d           0.627   3.575   1.320  0.00  0.00     0.107 C 
ATOM      7  H3  <0> d           1.151   3.222   2.208  0.00  0.00     0.094 H 
ATOM      8  C6  <0> d          -0.779   2.969   1.280  0.00  0.00     0.155 C 
ATOM      9  H4  <0> d          -1.316   3.355   0.414  0.00  0.00     0.133 H 
ATOM     10  O1  <0> d          -0.680   1.547   1.184  0.00  0.00    -0.354 OA
ATOM     11  H8  <0> d           1.964   1.222   0.858  0.00  0.00     0.040 H 
ATOM     12  H9  <0> d           1.921   1.302  -0.921  0.00  0.00     0.040 H 
ENDROOT
BRANCH   1  13
ATOM     13  C1  <0> d          -0.753   1.593  -1.231  0.00  0.00    -0.052 C 
ATOM     14  H5  <0> d          -0.243   1.241  -2.128  0.00  0.00     0.030 H 
ATOM     15  H6  <0> d          -1.776   1.216  -1.223  0.00  0.00     0.030 H 
ATOM     16  H7  <0> d          -0.768   2.683  -1.225  0.00  0.00     0.030 H 
ENDBRANCH   1  13
BRANCH   8  17
ATOM     17  O2  <0> d          -1.483   3.320   2.473  0.00  0.00    -0.369 OA
ATOM     18  H10 <0> d          -2.383   2.969   2.516  0.00  0.00     0.212 HD
ENDBRANCH   8  17
BRANCH   4  19
ATOM     19  O4  <0> d           2.732   3.646   0.129  0.00  0.00    -0.393 OA
ATOM     20  H12 <0> d           2.790   4.611   0.175  0.00  0.00     0.210 HD
ENDBRANCH   4  19
BRANCH   6  21
ATOM     21  O3  <0> d           0.531   5.000   1.357  0.00  0.00    -0.388 OA
ATOM     22  H11 <0> d           0.056   5.343   2.126  0.00  0.00     0.210 HD
ENDBRANCH   6  21
TORSDOF 4
