REMARK  7 active torsions:
REMARK  status: ('A' for Active; 'I' for Inactive)
REMARK    1  A    between atoms: C1_1  and  C2_2 
REMARK    2  A    between atoms: C2_2  and  C3_3 
REMARK    3  A    between atoms: C3_3  and  C4_5 
REMARK    4  A    between atoms: C3_3  and  C5_7 
REMARK    5  A    between atoms: C5_7  and  C6_8 
REMARK    6  A    between atoms: C5_7  and  C7_9 
REMARK    7  A    between atoms: C5_7  and  C8_10 
ROOT
ATOM      1  C5  <0> d          -1.914   1.129   1.381  0.00  0.00    -0.038 C 
ENDROOT
BRANCH   1   2
ATOM      2  C3  <0> d          -0.579   1.745   0.957  0.00  0.00     0.036 C 
ATOM      3  H1  <0> d          -0.738   2.778   0.648  0.00  0.00     0.057 H 
BRANCH   2   4
ATOM      4  C2  <0> d           0.003   0.947  -0.211  0.00  0.00    -0.055 C 
ATOM      5  H5  <0> d          -0.743   0.864  -1.002  0.00  0.00     0.033 H 
ATOM      6  H6  <0> d           0.280  -0.050   0.133  0.00  0.00     0.033 H 
BRANCH   4   7
ATOM      7  C1  <0> d           1.242   1.663  -0.752  0.00  0.00    -0.076 C 
ATOM      8  H2  <0> d           1.679   1.075  -1.559  0.00  0.00     0.027 H 
ATOM      9  H3  <0> d           0.957   2.645  -1.130  0.00  0.00     0.027 H 
ATOM     10  H4  <0> d           1.972   1.780   0.049  0.00  0.00     0.027 H 
ENDBRANCH   4   7
ENDBRANCH   2   4
BRANCH   2  11
ATOM     11  C4  <0> d           0.381   1.710   2.118  0.00  0.00     0.177 C 
ATOM     12  O1  <0> d           0.034   1.241   3.175  0.00  0.00    -0.648 OA
ATOM     13  O2  <0> d           1.623   2.201   1.976  0.00  0.00    -0.648 OA
ENDBRANCH   2  11
ENDBRANCH   1   2
BRANCH   1  14
ATOM     14  C6  <0> d          -1.693  -0.324   1.806  0.00  0.00    -0.069 C 
ATOM     15  H7  <0> d          -0.996  -0.355   2.644  0.00  0.00     0.028 H 
ATOM     16  H8  <0> d          -2.644  -0.762   2.109  0.00  0.00     0.028 H 
ATOM     17  H9  <0> d          -1.281  -0.888   0.970  0.00  0.00     0.028 H 
ENDBRANCH   1  14
BRANCH   1  18
ATOM     18  C7  <0> d          -2.491   1.922   2.555  0.00  0.00    -0.069 C 
ATOM     19  H10 <0> d          -2.649   2.957   2.252  0.00  0.00     0.028 H 
ATOM     20  H11 <0> d          -3.442   1.483   2.857  0.00  0.00     0.028 H 
ATOM     21  H12 <0> d          -1.794   1.891   3.393  0.00  0.00     0.028 H 
ENDBRANCH   1  18
BRANCH   1  22
ATOM     22  C8  <0> d          -2.892   1.173   0.206  0.00  0.00    -0.069 C 
ATOM     23  H13 <0> d          -2.450   0.670  -0.654  0.00  0.00     0.028 H 
ATOM     24  H14 <0> d          -3.818   0.670   0.484  0.00  0.00     0.028 H 
ATOM     25  H15 <0> d          -3.106   2.211  -0.051  0.00  0.00     0.028 H 
ENDBRANCH   1  22
TORSDOF 7
