REMARK  0 active torsions:
REMARK  status: ('A' for Active; 'I' for Inactive)
ROOT
ATOM      1  C1  <0> d          -0.768   1.601  -1.225  0.00  0.00    -0.030 C 
ATOM      2  C2  <0> d          -2.184   1.018  -1.202  0.00  0.00    -0.001 C 
ATOM      3  N1  <0> d          -2.772   1.194   0.123  0.00  0.00    -0.337 N 
ATOM      4  C3  <0> d          -2.042   1.425   1.219  0.00  0.00     0.360 C 
ATOM      5  O1  <0> d          -2.613   1.516   2.288  0.00  0.00    -0.239 OA
ATOM      6  O2  <0> d          -0.706   1.561   1.195  0.00  0.00    -0.304 OA
ATOM      7  C4  <0> d          -0.013   1.086   0.008  0.00  0.00     0.032 C 
ATOM      8  H1  <0> d          -0.813   2.699  -1.195  0.00  0.00     0.038 H 
ATOM      9  H2  <0> d          -0.243   1.280  -2.137  0.00  0.00     0.038 H 
ATOM     10  H3  <0> d          -2.806   1.536  -1.947  0.00  0.00     0.064 H 
ATOM     11  H4  <0> d          -2.143  -0.055  -1.441  0.00  0.00     0.064 H 
ATOM     12  H5  <0> d          -3.864   1.138   0.252  0.00  0.00     0.164 HD
ATOM     13  H6  <0> d           0.005  -0.014  -0.005  0.00  0.00     0.075 H 
ATOM     14  H7  <0> d           1.018   1.469  -0.007  0.00  0.00     0.075 H 
ENDROOT
TORSDOF 0
