REMARK  7 active torsions:
REMARK  status: ('A' for Active; 'I' for Inactive)
REMARK    1  A    between atoms: C1_1  and  C2_2 
REMARK    2  A    between atoms: C2_2  and  C3_4 
REMARK    3  A    between atoms: C2_2  and  N1_7 
REMARK    4  A    between atoms: C3_4  and  C4_5 
REMARK    5  A    between atoms: C3_4  and  C5_6 
REMARK       I    between atoms: N1_7  and  C6_8 
REMARK    6  A    between atoms: C6_8  and  O2_10 
REMARK    7  A    between atoms: O2_10  and  C7_11 
ROOT
ATOM      1  C2  <0> d           0.002  -0.004   0.002  0.00  0.00     0.013 C 
ATOM      2  H1  <0> d           0.529  -0.365   0.885  0.00  0.00     0.072 H 
ENDROOT
BRANCH   1   3
ATOM      3  C1  <0> d          -0.019   1.526   0.010  0.00  0.00    -0.057 C 
ATOM      4  H2  <0> d           1.004   1.903   0.003  0.00  0.00     0.030 H 
ATOM      5  H3  <0> d          -0.546   1.887  -0.873  0.00  0.00     0.030 H 
ATOM      6  H4  <0> d          -0.529   1.877   0.907  0.00  0.00     0.030 H 
ENDBRANCH   1   3
BRANCH   1   7
ATOM      7  C3  <0> d          -1.433  -0.534   0.013  0.00  0.00    -0.042 C 
ATOM      8  H5  <0> d          -1.419  -1.623   0.007  0.00  0.00     0.042 H 
BRANCH   7   9
ATOM      9  C4  <0> d          -2.149  -0.040   1.272  0.00  0.00    -0.071 C 
ATOM     10  H6  <0> d          -2.164   1.050   1.278  0.00  0.00     0.028 H 
ATOM     11  H7  <0> d          -3.172  -0.417   1.279  0.00  0.00     0.028 H 
ATOM     12  H8  <0> d          -1.622  -0.401   2.155  0.00  0.00     0.028 H 
ENDBRANCH   7   9
BRANCH   7  13
ATOM     13  C5  <0> d          -2.173  -0.027  -1.227  0.00  0.00    -0.071 C 
ATOM     14  H9  <0> d          -2.188   1.063  -1.221  0.00  0.00     0.028 H 
ATOM     15  H10 <0> d          -1.663  -0.378  -2.123  0.00  0.00     0.028 H 
ATOM     16  H11 <0> d          -3.196  -0.404  -1.219  0.00  0.00     0.028 H 
ENDBRANCH   7  13
ENDBRANCH   1   7
BRANCH   1  17
ATOM     17  N1  <0> d           0.688  -0.476  -1.203  0.00  0.00    -0.332 N 
ATOM     18  C6  <0> d           2.031  -0.587  -1.215  0.00  0.00     0.360 C 
ATOM     19  O1  <0> d           2.673  -0.295  -0.226  0.00  0.00    -0.239 OA
ATOM     20  H12 <0> d           0.175  -0.710  -1.993  0.00  0.00     0.165 HD
BRANCH  18  21
ATOM     21  O2  <0> d           2.661  -1.021  -2.323  0.00  0.00    -0.309 OA
BRANCH  21  22
ATOM     22  C7  <0> d           4.086  -1.114  -2.264  0.00  0.00     0.015 C 
ATOM     23  H13 <0> d           4.466  -1.475  -3.220  0.00  0.00     0.067 H 
ATOM     24  H14 <0> d           4.506  -0.130  -2.055  0.00  0.00     0.067 H 
ATOM     25  H15 <0> d           4.373  -1.807  -1.473  0.00  0.00     0.067 H 
ENDBRANCH  21  22
ENDBRANCH  18  21
ENDBRANCH   1  17
TORSDOF 7
