REMARK  6 active torsions:
REMARK  status: ('A' for Active; 'I' for Inactive)
REMARK    1  A    between atoms: C1_1  and  C2_2 
REMARK    2  A    between atoms: C2_2  and  C3_4 
REMARK    3  A    between atoms: C2_2  and  O2_14 
REMARK    4  A    between atoms: C4_8  and  C5_10 
REMARK    5  A    between atoms: C5_10  and  C6_12 
REMARK    6  A    between atoms: C5_10  and  O1_13 
ROOT
ATOM      1  C3  <0> d           3.551   1.650  -0.212  0.00  0.00     0.150 A 
ATOM      2  N1  <0> d           3.158   2.885   0.147  0.00  0.00    -0.261 N 
ATOM      3  H2  <0> d           3.727   3.658   0.288  0.00  0.00     0.190 HD
ATOM      4  N2  <0> d           1.761   2.833   0.276  0.00  0.00    -0.155 NA
ATOM      5  C4  <0> d           1.401   1.607  -0.003  0.00  0.00     0.176 A 
ATOM      6  N3  <0> d           2.488   0.893  -0.292  0.00  0.00    -0.211 NA
ENDROOT
BRANCH   1   7
ATOM      7  C2  <0> d           4.971   1.214  -0.470  0.00  0.00     0.090 C 
ATOM      8  H1  <0> d           5.081   0.938  -1.519  0.00  0.00     0.094 H 
BRANCH   7   9
ATOM      9  C1  <0> d           5.302   0.008   0.412  0.00  0.00    -0.046 C 
ATOM     10  H4  <0> d           4.621  -0.811   0.178  0.00  0.00     0.031 H 
ATOM     11  H5  <0> d           6.328  -0.308   0.225  0.00  0.00     0.031 H 
ATOM     12  H6  <0> d           5.192   0.284   1.460  0.00  0.00     0.031 H 
ENDBRANCH   7   9
BRANCH   7  13
ATOM     13  O2  <0> d           5.862   2.287  -0.164  0.00  0.00    -0.388 OA
ATOM     14  H11 <0> d           5.819   2.585   0.755  0.00  0.00     0.210 HD
ENDBRANCH   7  13
ENDBRANCH   1   7
BRANCH   5  15
ATOM     15  C5  <0> d          -0.013   1.086   0.008  0.00  0.00     0.092 C 
ATOM     16  H3  <0> d           0.002  -0.004   0.002  0.00  0.00     0.094 H 
BRANCH  15  17
ATOM     17  C6  <0> d          -0.753   1.593  -1.232  0.00  0.00    -0.046 C 
ATOM     18  H7  <0> d          -0.242   1.241  -2.128  0.00  0.00     0.031 H 
ATOM     19  H8  <0> d          -1.775   1.215  -1.224  0.00  0.00     0.031 H 
ATOM     20  H9  <0> d          -0.767   2.683  -1.226  0.00  0.00     0.031 H 
ENDBRANCH  15  17
BRANCH  15  21
ATOM     21  O1  <0> d          -0.682   1.547   1.184  0.00  0.00    -0.388 OA
ATOM     22  H10 <0> d          -1.599   1.248   1.257  0.00  0.00     0.210 HD
ENDBRANCH  15  21
ENDBRANCH   5  15
TORSDOF 6
