REMARK  0 active torsions:
REMARK  status: ('A' for Active; 'I' for Inactive)
ROOT
ATOM      1  C1  <0> d          -1.213   3.142   0.032  0.00  0.00    -0.081 A 
ATOM      2  C2  <0> d          -1.205   1.752   0.017  0.00  0.00    -0.082 A 
ATOM      3  C3  <0> d          -0.013   1.076   0.008  0.00  0.00    -0.063 A 
ATOM      4  C4  <0> d           1.164   1.786   0.001  0.00  0.00     0.055 A 
ATOM      5  C5  <0> d           1.188   3.201   0.008  0.00  0.00     0.098 A 
ATOM      6  C6  <0> d          -0.057   3.861   0.024  0.00  0.00    -0.052 A 
ATOM      7  N1  <0> d           2.443   3.666  -0.002  0.00  0.00    -0.142 NA
ATOM      8  N2  <0> d           3.460   2.885  -0.015  0.00  0.00    -0.110 NA
ATOM      9  S1  <0> d           2.895   1.408  -0.018  0.00  0.00     0.036 SA
ATOM     10  H1  <0> d          -2.158   3.663   0.044  0.00  0.00     0.083 H 
ATOM     11  H2  <0> d          -2.137   1.206   0.018  0.00  0.00     0.083 H 
ATOM     12  H3  <0> d           0.002  -0.004   0.002  0.00  0.00     0.085 H 
ATOM     13  H4  <0> d          -0.094   4.940   0.030  0.00  0.00     0.087 H 
ENDROOT
TORSDOF 0
