REMARK  2 active torsions:
REMARK  status: ('A' for Active; 'I' for Inactive)
REMARK    1  A    between atoms: C4_4  and  C7_7 
REMARK    2  A    between atoms: C7_7  and  N2_11 
ROOT
ATOM      1  C7  <0> d           1.151   3.592   0.010  0.00  0.00     0.237 C 
ATOM      2  H1  <0> d           0.183   3.968   0.374  0.00  0.00     0.119 H 
ATOM      3  C8  <0> d           1.372   4.093  -1.356  0.00  0.00     0.100 C 
ATOM      4  N1  <0> d           1.543   4.480  -2.411  0.00  0.00    -0.195 NA
ENDROOT
BRANCH   1   5
ATOM      5  C4  <0> d           1.171   2.086   0.002  0.00  0.00    -0.012 A 
ATOM      6  C3  <0> d          -0.017   1.378   0.010  0.00  0.00    -0.074 A 
ATOM      7  C2  <0> d           0.002  -0.004   0.002  0.00  0.00    -0.082 A 
ATOM      8  H4  <0> d          -0.959   1.905   0.017  0.00  0.00     0.084 H 
ATOM      9  C1  <0> d           1.208  -0.679  -0.014  0.00  0.00    -0.083 A 
ATOM     10  H3  <0> d          -0.926  -0.557   0.008  0.00  0.00     0.083 H 
ATOM     11  C6  <0> d           2.396   0.029  -0.021  0.00  0.00    -0.082 A 
ATOM     12  H2  <0> d           1.223  -1.759  -0.020  0.00  0.00     0.083 H 
ATOM     13  C5  <0> d           2.377   1.411  -0.014  0.00  0.00    -0.074 A 
ATOM     14  H6  <0> d           3.339  -0.499  -0.033  0.00  0.00     0.083 H 
ATOM     15  H5  <0> d           3.305   1.963  -0.019  0.00  0.00     0.084 H 
ENDBRANCH   1   5
BRANCH   1  16
ATOM     16  N2  <0> d           2.213   4.092   0.893  0.00  0.00     0.100 N 
ATOM     17  H7  <0> d           2.198   5.192   0.898  0.00  0.00     0.315 HD
ATOM     18  H8  <0> d           2.047   3.718   1.914  0.00  0.00     0.315 HD
ENDBRANCH   1  16
TORSDOF 2
