REMARK  0 active torsions:
REMARK  status: ('A' for Active; 'I' for Inactive)
ROOT
ATOM      1  C1  <0> d          -0.019   1.540   0.011  0.00  0.00    -0.061 C 
ATOM      2  C2  <0> d           1.464   1.989  -0.001  0.00  0.00    -0.051 C 
ATOM      3  C3  <0> d           2.205   0.764   0.565  0.00  0.00     0.029 C 
ATOM      4  H1  <0> d           2.058   0.738   1.644  0.00  0.00     0.059 H 
ATOM      5  C4  <0> d           1.455  -0.406  -0.062  0.00  0.00    -0.068 C 
ATOM      6  C5  <0> d           2.152  -1.410  -0.570  0.00  0.00    -0.080 C 
ATOM      7  C6  <0> d           3.610  -1.365  -0.617  0.00  0.00    -0.079 C 
ATOM      8  C7  <0> d           4.319  -0.270  -0.259  0.00  0.00    -0.038 C 
ATOM      9  C8  <0> d           3.678   0.884   0.281  0.00  0.00     0.157 C 
ATOM     10  O1  <0> d           4.281   1.917   0.495  0.00  0.00    -0.293 OA
ATOM     11  C9  <0> d           0.002  -0.004   0.002  0.00  0.00    -0.044 C 
ATOM     12  H2  <0> d          -0.514   1.904   0.911  0.00  0.00     0.033 H 
ATOM     13  H3  <0> d          -0.531   1.913  -0.876  0.00  0.00     0.033 H 
ATOM     14  H4  <0> d           1.793   2.202  -1.018  0.00  0.00     0.034 H 
ATOM     15  H5  <0> d           1.608   2.857   0.641  0.00  0.00     0.034 H 
ATOM     16  H6  <0> d           1.634  -2.276  -0.955  0.00  0.00     0.083 H 
ATOM     17  H7  <0> d           4.144  -2.242  -0.951  0.00  0.00     0.083 H 
ATOM     18  H8  <0> d           5.393  -0.271  -0.375  0.00  0.00     0.089 H 
ATOM     19  H9  <0> d          -0.454  -0.390   0.914  0.00  0.00     0.039 H 
ATOM     20  H10 <0> d          -0.530  -0.381  -0.872  0.00  0.00     0.039 H 
ENDROOT
TORSDOF 0
