REMARK  4 active torsions:
REMARK  status: ('A' for Active; 'I' for Inactive)
REMARK    1  A    between atoms: C1_1  and  C2_2 
REMARK    2  A    between atoms: C5_5  and  O1_8 
REMARK    3  A    between atoms: O1_8  and  C8_9 
REMARK    4  A    between atoms: C8_9  and  C9_11 
ROOT
ATOM      1  C2  <0> d          -0.018  -0.004  -0.041  0.00  0.00    -0.062 A 
ATOM      2  C3  <0> d          -0.107  -0.702  -1.231  0.00  0.00    -0.075 A 
ATOM      3  C4  <0> d          -0.082  -2.083  -1.227  0.00  0.00    -0.050 A 
ATOM      4  C5  <0> d           0.032  -2.770  -0.027  0.00  0.00     0.079 A 
ATOM      5  C6  <0> d           0.121  -2.068   1.166  0.00  0.00    -0.050 A 
ATOM      6  C7  <0> d           0.101  -0.687   1.156  0.00  0.00    -0.075 A 
ATOM      7  H4  <0> d          -0.196  -0.167  -2.165  0.00  0.00     0.084 H 
ATOM      8  H5  <0> d          -0.152  -2.628  -2.157  0.00  0.00     0.087 H 
ATOM      9  H6  <0> d           0.210  -2.600   2.101  0.00  0.00     0.087 H 
ATOM     10  H7  <0> d           0.175  -0.139   2.084  0.00  0.00     0.084 H 
ENDROOT
BRANCH   4  11
ATOM     11  O1  <0> d           0.057  -4.129  -0.021  0.00  0.00    -0.279 OA
BRANCH  11  12
ATOM     12  C8  <0> d           1.137  -4.743  -0.531  0.00  0.00     0.260 C 
ATOM     13  O2  <0> d           2.092  -4.092  -0.882  0.00  0.00    -0.265 OA
BRANCH  12  14
ATOM     14  C9  <0> d           1.157  -6.244  -0.665  0.00  0.00     0.004 C 
ATOM     15  H8  <0> d           0.215  -6.654  -0.300  0.00  0.00     0.041 H 
ATOM     16  H9  <0> d           1.288  -6.513  -1.713  0.00  0.00     0.041 H 
ATOM     17  H10 <0> d           1.982  -6.650  -0.080  0.00  0.00     0.041 H 
ENDBRANCH  12  14
ENDBRANCH  11  12
ENDBRANCH   4  11
BRANCH   1  18
ATOM     18  C1  <0> d          -0.046   1.502  -0.048  0.00  0.00    -0.051 C 
ATOM     19  H1  <0> d           0.970   1.884  -0.142  0.00  0.00     0.033 H 
ATOM     20  H2  <0> d          -0.644   1.851  -0.891  0.00  0.00     0.033 H 
ATOM     21  H3  <0> d          -0.485   1.862   0.882  0.00  0.00     0.033 H 
ENDBRANCH   1  18
TORSDOF 4
