REMARK  2 active torsions:
REMARK  status: ('A' for Active; 'I' for Inactive)
REMARK    1  A    between atoms: C1_1  and  S1_2 
REMARK    2  A    between atoms: S1_2  and  C2_4 
ROOT
ATOM      1  C2  <0> d          -0.022   1.758   0.012  0.00  0.00     0.217 A 
ATOM      2  N1  <0> d          -1.182   2.382   0.021  0.00  0.00    -0.231 NA
ATOM      3  C3  <0> d          -1.242   3.704   0.033  0.00  0.00     0.042 A 
ATOM      4  C4  <0> d          -0.058   4.433   0.025  0.00  0.00     0.142 A 
ATOM      5  C5  <0> d           1.145   3.736   0.011  0.00  0.00     0.042 A 
ATOM      6  N2  <0> d           1.121   2.413   0.004  0.00  0.00    -0.231 NA
ATOM      7  O2  <0> d          -0.076   5.792   0.033  0.00  0.00    -0.189 OA
ATOM      8  H4  <0> d          -2.197   4.209   0.045  0.00  0.00     0.119 H 
ATOM      9  H5  <0> d           2.086   4.267   0.004  0.00  0.00     0.119 H 
ENDROOT
BRANCH   1  10
ATOM     10  S1  <0> d           0.002  -0.004   0.002  0.00  0.00     0.084 S 
ATOM     11  O1  <0> d           1.255  -0.328  -0.586  0.00  0.00    -0.250 OA
BRANCH  10  12
ATOM     12  C1  <0> d           0.025  -0.452   1.760  0.00  0.00    -0.001 C 
ATOM     13  H1  <0> d          -0.945  -0.202   2.214  0.00  0.00     0.046 H 
ATOM     14  H2  <0> d           0.824   0.105   2.270  0.00  0.00     0.046 H 
ATOM     15  H3  <0> d           0.209  -1.532   1.860  0.00  0.00     0.046 H 
ENDBRANCH  10  12
ENDBRANCH   1  10
TORSDOF 2
