REMARK  7 active torsions:
REMARK  status: ('A' for Active; 'I' for Inactive)
REMARK    1  A    between atoms: C1_1  and  O1_2 
REMARK    2  A    between atoms: O1_2  and  C2_3 
REMARK    3  A    between atoms: C2_3  and  C3_4 
REMARK    4  A    between atoms: C3_4  and  C4_5 
REMARK    5  A    between atoms: C3_4  and  O3_8 
REMARK    6  A    between atoms: C4_5  and  O2_6 
REMARK    7  A    between atoms: O2_6  and  C5_7 
ROOT
ATOM      1  C3  <0> d          -1.433  -0.534   0.013  0.00  0.00     0.076 C 
ATOM      2  H6  <0> d          -1.986  -0.102  -0.821  0.00  0.00     0.089 H 
ENDROOT
BRANCH   1   3
ATOM      3  C2  <0> d           0.002  -0.004   0.002  0.00  0.00     0.045 C 
ATOM      4  H4  <0> d           0.512  -0.356  -0.895  0.00  0.00     0.078 H 
ATOM      5  H5  <0> d           0.529  -0.365   0.885  0.00  0.00     0.078 H 
BRANCH   3   6
ATOM      6  O1  <0> d          -0.017   1.425   0.010  0.00  0.00    -0.393 OA
BRANCH   6   7
ATOM      7  C1  <0> d           1.280   2.024   0.001  0.00  0.00     0.004 C 
ATOM      8  H1  <0> d           1.834   1.705   0.884  0.00  0.00     0.066 H 
ATOM      9  H2  <0> d           1.817   1.714  -0.896  0.00  0.00     0.066 H 
ATOM     10  H3  <0> d           1.179   3.109   0.007  0.00  0.00     0.066 H 
ENDBRANCH   6   7
ENDBRANCH   3   6
ENDBRANCH   1   3
BRANCH   1  11
ATOM     11  C4  <0> d          -1.416  -2.058  -0.121  0.00  0.00     0.045 C 
ATOM     12  H7  <0> d          -0.856  -2.337  -1.014  0.00  0.00     0.078 H 
ATOM     13  H8  <0> d          -0.941  -2.494   0.757  0.00  0.00     0.078 H 
BRANCH  11  14
ATOM     14  O2  <0> d          -2.756  -2.542  -0.228  0.00  0.00    -0.393 OA
BRANCH  14  15
ATOM     15  C5  <0> d          -2.852  -3.962  -0.358  0.00  0.00     0.004 C 
ATOM     16  H9  <0> d          -2.322  -4.281  -1.256  0.00  0.00     0.066 H 
ATOM     17  H10 <0> d          -2.407  -4.438   0.515  0.00  0.00     0.066 H 
ATOM     18  H11 <0> d          -3.901  -4.249  -0.434  0.00  0.00     0.066 H 
ENDBRANCH  14  15
ENDBRANCH  11  14
ENDBRANCH   1  11
BRANCH   1  19
ATOM     19  O3  <0> d          -2.066  -0.171   1.242  0.00  0.00    -0.391 OA
ATOM     20  H12 <0> d          -1.626  -0.521   2.029  0.00  0.00     0.210 HD
ENDBRANCH   1  19
TORSDOF 7
