REMARK  4 active torsions:
REMARK  status: ('A' for Active; 'I' for Inactive)
REMARK    1  A    between atoms: C1_1  and  C2_2 
REMARK    2  A    between atoms: C2_2  and  C3_4 
REMARK    3  A    between atoms: C2_2  and  O1_10 
REMARK    4  A    between atoms: C4_5  and  C5_6 
ROOT
ATOM      1  C2  <0> d          -1.944   2.723   3.398  0.00  0.00     0.090 C 
ATOM      2  H1  <0> d          -1.959   3.813   3.404  0.00  0.00     0.102 H 
ENDROOT
BRANCH   1   3
ATOM      3  C1  <0> d          -3.380   2.193   3.409  0.00  0.00    -0.043 C 
ATOM      4  H2  <0> d          -3.365   1.103   3.403  0.00  0.00     0.032 H 
ATOM      5  H3  <0> d          -3.890   2.545   4.305  0.00  0.00     0.032 H 
ATOM      6  H4  <0> d          -3.907   2.554   2.526  0.00  0.00     0.032 H 
ENDBRANCH   1   3
BRANCH   1   7
ATOM      7  C3  <0> d          -1.255   2.248   2.187  0.00  0.00    -0.066 C 
ATOM      8  C4  <0> d          -0.706   1.869   1.221  0.00  0.00     0.011 C 
BRANCH   8   9
ATOM      9  C5  <0> d          -0.017   1.395   0.010  0.00  0.00     0.459 C 
ATOM     10  F1  <0> d           0.002  -0.004   0.002  0.00  0.00    -0.159 F 
ATOM     11  F2  <0> d           1.296   1.879  -0.000  0.00  0.00    -0.159 F 
ATOM     12  F3  <0> d          -0.694   1.858  -1.124  0.00  0.00    -0.159 F 
ENDBRANCH   8   9
ENDBRANCH   1   7
BRANCH   1  13
ATOM     13  O1  <0> d          -1.253   2.249   4.556  0.00  0.00    -0.384 OA
ATOM     14  H5  <0> d          -1.201   1.286   4.616  0.00  0.00     0.211 HD
ENDBRANCH   1  13
TORSDOF 4
