REMARK  3 active torsions:
REMARK  status: ('A' for Active; 'I' for Inactive)
REMARK    1  A    between atoms: C1_1  and  O1_2 
REMARK    2  A    between atoms: O1_2  and  C2_3 
REMARK    3  A    between atoms: C2_3  and  C3_4 
ROOT
ATOM      1  C2  <0> d          -0.019   1.526   0.010  0.00  0.00     0.454 C 
ATOM      2  F4  <0> d           1.294   2.010   0.001  0.00  0.00    -0.166 F 
ATOM      3  F5  <0> d          -0.695   1.989  -1.123  0.00  0.00    -0.166 F 
ENDROOT
BRANCH   1   4
ATOM      4  O1  <0> d          -0.688   1.987   1.186  0.00  0.00    -0.324 OA
BRANCH   4   5
ATOM      5  C1  <0> d          -0.762   3.410   1.292  0.00  0.00     0.010 C 
ATOM      6  H1  <0> d          -1.284   3.679   2.211  0.00  0.00     0.066 H 
ATOM      7  H2  <0> d           0.245   3.826   1.311  0.00  0.00     0.066 H 
ATOM      8  H3  <0> d          -1.305   3.810   0.436  0.00  0.00     0.066 H 
ENDBRANCH   4   5
ENDBRANCH   1   4
BRANCH   1   9
ATOM      9  C3  <0> d           0.002  -0.004   0.002  0.00  0.00     0.484 C 
ATOM     10  F1  <0> d           0.679  -0.468   1.135  0.00  0.00    -0.163 F 
ATOM     11  F2  <0> d          -1.310  -0.488   0.012  0.00  0.00    -0.163 F 
ATOM     12  F3  <0> d           0.657  -0.455  -1.149  0.00  0.00    -0.163 F 
ENDBRANCH   1   9
TORSDOF 3
