REMARK  6 active torsions:
REMARK  status: ('A' for Active; 'I' for Inactive)
REMARK    1  A    between atoms: C1_1  and  N1_2 
REMARK    2  A    between atoms: N1_2  and  C2_3 
REMARK    3  A    between atoms: N1_2  and  C3_4 
REMARK    4  A    between atoms: N5_8  and  N6_9 
REMARK    5  A    between atoms: N6_9  and  C4_10 
REMARK    6  A    between atoms: N6_9  and  C5_11 
ROOT
ATOM      1  C3  <0> d          -1.283  -0.517   0.011  0.00  0.00     0.239 A 
ATOM      2  N2  <0> d          -2.400   0.175   0.025  0.00  0.00    -0.094 NA
ATOM      3  N3  <0> d          -3.416  -0.611   0.031  0.00  0.00    -0.020 NA
ATOM      4  N4  <0> d          -3.031  -1.841   0.021  0.00  0.00    -0.026 NA
ATOM      5  N5  <0> d          -1.625  -1.827   0.002  0.00  0.00    -0.142 N 
ENDROOT
BRANCH   1   6
ATOM      6  N1  <0> d           0.002  -0.004   0.002  0.00  0.00    -0.257 NA
BRANCH   6   7
ATOM      7  C1  <0> d          -0.018   1.465   0.010  0.00  0.00    -0.026 C 
ATOM      8  H1  <0> d           1.005   1.842   0.002  0.00  0.00     0.049 H 
ATOM      9  H2  <0> d          -0.545   1.826  -0.873  0.00  0.00     0.049 H 
ATOM     10  H3  <0> d          -0.528   1.816   0.907  0.00  0.00     0.049 H 
ENDBRANCH   6   7
BRANCH   6  11
ATOM     11  C2  <0> d           0.786  -0.526   1.129  0.00  0.00    -0.026 C 
ATOM     12  H4  <0> d           0.344  -0.188   2.067  0.00  0.00     0.049 H 
ATOM     13  H5  <0> d           0.784  -1.616   1.099  0.00  0.00     0.049 H 
ATOM     14  H6  <0> d           1.811  -0.162   1.059  0.00  0.00     0.049 H 
ENDBRANCH   6  11
ENDBRANCH   1   6
BRANCH   5  15
ATOM     15  N6  <0> d          -0.785  -2.903  -0.018  0.00  0.00    -0.212 NA
BRANCH  15  16
ATOM     16  C4  <0> d          -1.543  -4.162  -0.022  0.00  0.00    -0.014 C 
ATOM     17  H7  <0> d          -2.181  -4.199  -0.905  0.00  0.00     0.051 H 
ATOM     18  H8  <0> d          -0.850  -5.003  -0.038  0.00  0.00     0.051 H 
ATOM     19  H9  <0> d          -2.160  -4.217   0.875  0.00  0.00     0.051 H 
ENDBRANCH  15  16
BRANCH  15  20
ATOM     20  C5  <0> d           0.129  -2.836  -1.166  0.00  0.00    -0.014 C 
ATOM     21  H10 <0> d           0.728  -1.927  -1.100  0.00  0.00     0.051 H 
ATOM     22  H11 <0> d           0.787  -3.705  -1.158  0.00  0.00     0.051 H 
ATOM     23  H12 <0> d          -0.448  -2.825  -2.090  0.00  0.00     0.051 H 
ENDBRANCH  15  20
ENDBRANCH   5  15
TORSDOF 6
