REMARK  4 active torsions:
REMARK  status: ('A' for Active; 'I' for Inactive)
REMARK    1  A    between atoms: C1_1  and  C2_2 
REMARK    2  A    between atoms: C2_2  and  C3_3 
REMARK    3  A    between atoms: C2_2  and  N1_4 
REMARK    4  A    between atoms: N1_4  and  C4_5 
ROOT
ATOM      1  N1  <0> d          -0.011   0.966   0.007  0.00  0.00    -0.386 N 
ATOM      2  H8  <0> d           0.002  -0.004   0.002  0.00  0.00     0.160 HD
ENDROOT
BRANCH   1   3
ATOM      3  C2  <0> d           1.248   1.716  -0.001  0.00  0.00     0.003 C 
ATOM      4  H4  <0> d           1.123   2.628  -0.584  0.00  0.00     0.071 H 
BRANCH   3   5
ATOM      5  C1  <0> d           1.635   2.077   1.435  0.00  0.00    -0.058 C 
ATOM      6  H1  <0> d           2.571   2.635   1.429  0.00  0.00     0.030 H 
ATOM      7  H2  <0> d           0.851   2.689   1.880  0.00  0.00     0.030 H 
ATOM      8  H3  <0> d           1.759   1.165   2.018  0.00  0.00     0.030 H 
ENDBRANCH   3   5
BRANCH   3   9
ATOM      9  C3  <0> d           2.349   0.857  -0.625  0.00  0.00    -0.058 C 
ATOM     10  H5  <0> d           2.073   0.599  -1.648  0.00  0.00     0.030 H 
ATOM     11  H6  <0> d           3.285   1.414  -0.631  0.00  0.00     0.030 H 
ATOM     12  H7  <0> d           2.473  -0.056  -0.042  0.00  0.00     0.030 H 
ENDBRANCH   3   9
ENDBRANCH   1   3
BRANCH   1  13
ATOM     13  C4  <0> d          -1.231   1.648   0.017  0.00  0.00     0.028 A 
ATOM     14  C9  <0> d          -2.425   0.939   0.019  0.00  0.00    -0.055 A 
ATOM     15  C8  <0> d          -3.629   1.615   0.029  0.00  0.00    -0.044 A 
ATOM     16  H12 <0> d          -2.412  -0.141   0.012  0.00  0.00     0.087 H 
ATOM     17  C7  <0> d          -3.647   3.000   0.037  0.00  0.00     0.116 A 
ATOM     18  H11 <0> d          -4.558   1.064   0.030  0.00  0.00     0.088 H 
ATOM     19  C6  <0> d          -2.458   3.709   0.035  0.00  0.00    -0.044 A 
ATOM     20  F1  <0> d          -4.826   3.659   0.046  0.00  0.00    -0.206 F 
ATOM     21  C5  <0> d          -1.251   3.037   0.030  0.00  0.00    -0.055 A 
ATOM     22  H10 <0> d          -2.474   4.789   0.041  0.00  0.00     0.088 H 
ATOM     23  H9  <0> d          -0.324   3.591   0.033  0.00  0.00     0.087 H 
ENDBRANCH   1  13
TORSDOF 4
