REMARK  0 active torsions:
REMARK  status: ('A' for Active; 'I' for Inactive)
ROOT
ATOM      1  C1  <0> d          -0.016   1.301   0.009  0.00  0.00     0.069 A 
ATOM      2  N1  <0> d           0.002  -0.004   0.002  0.00  0.00    -0.216 NA
ATOM      3  C2  <0> d           1.156  -0.686  -0.013  0.00  0.00     0.229 A 
ATOM      4  O1  <0> d           1.147  -2.039  -0.020  0.00  0.00    -0.168 OA
ATOM      5  C3  <0> d           2.355   0.002  -0.020  0.00  0.00     0.157 A 
ATOM      6  C4  <0> d           2.321   1.406  -0.013  0.00  0.00     0.272 A 
ATOM      7  O2  <0> d           3.355   2.054  -0.019  0.00  0.00    -0.266 OA
ATOM      8  N2  <0> d           1.121   2.024   0.002  0.00  0.00    -0.316 N 
ATOM      9 Cl1  <0> d           3.868  -0.850  -0.039  0.00  0.00    -0.073 Cl
ATOM     10  H1  <0> d          -0.966   1.814   0.016  0.00  0.00     0.143 H 
ATOM     11  H2  <0> d           1.077   2.993   0.007  0.00  0.00     0.170 HD
ENDROOT
TORSDOF 0
