REMARK  0 active torsions:
REMARK  status: ('A' for Active; 'I' for Inactive)
ROOT
ATOM      1  C1  <0> d           2.345   0.060  -0.020  0.00  0.00     0.097 A 
ATOM      2  N1  <0> d           1.186  -0.651  -0.013  0.00  0.00    -0.187 NA
ATOM      3  C2  <0> d           0.002  -0.004   0.002  0.00  0.00     0.351 A 
ATOM      4  O1  <0> d          -1.039  -0.631   0.008  0.00  0.00    -0.244 OA
ATOM      5  N2  <0> d          -0.016   1.345   0.009  0.00  0.00    -0.257 N 
ATOM      6  C3  <0> d           1.146   2.028   0.002  0.00  0.00     0.351 A 
ATOM      7  O2  <0> d           1.135   3.245   0.009  0.00  0.00    -0.244 OA
ATOM      8  N3  <0> d           2.318   1.368  -0.013  0.00  0.00    -0.187 NA
ATOM      9  H1  <0> d           3.293  -0.457  -0.032  0.00  0.00     0.147 H 
ATOM     10  H2  <0> d          -0.976   1.882   0.021  0.00  0.00     0.175 HD
ENDROOT
TORSDOF 0
