REMARK  3 active torsions:
REMARK  status: ('A' for Active; 'I' for Inactive)
REMARK    1  A    between atoms: C1_1  and  C2_2 
REMARK    2  A    between atoms: C2_2  and  C3_3 
REMARK    3  A    between atoms: C5_6  and  C6_8 
ROOT
ATOM      1  C3  <0> d          -0.018   1.503   0.010  0.00  0.00     0.075 A 
ATOM      2  N1  <0> d          -1.057   2.312   0.019  0.00  0.00    -0.257 NA
ATOM      3  C4  <0> d          -0.917   3.613   0.030  0.00  0.00     0.026 A 
ATOM      4  C5  <0> d           0.374   4.123   0.021  0.00  0.00     0.100 A 
ATOM      5  S1  <0> d           1.321   2.607   0.003  0.00  0.00    -0.067 SA
ATOM      6  H6  <0> d          -1.776   4.267   0.042  0.00  0.00     0.117 H 
ENDROOT
BRANCH   1   7
ATOM      7  C2  <0> d           0.002  -0.004   0.002  0.00  0.00    -0.022 C 
ATOM      8  H4  <0> d           0.902  -0.358   0.505  0.00  0.00     0.042 H 
ATOM      9  H5  <0> d          -0.878  -0.382   0.522  0.00  0.00     0.042 H 
BRANCH   7  10
ATOM     10  C1  <0> d          -0.005  -0.506  -1.443  0.00  0.00    -0.071 C 
ATOM     11  H1  <0> d           0.875  -0.128  -1.963  0.00  0.00     0.028 H 
ATOM     12  H2  <0> d           0.010  -1.596  -1.449  0.00  0.00     0.028 H 
ATOM     13  H3  <0> d          -0.904  -0.152  -1.947  0.00  0.00     0.028 H 
ENDBRANCH   7  10
ENDBRANCH   1   7
BRANCH   4  14
ATOM     14  C6  <0> d           0.832   5.514   0.024  0.00  0.00     0.218 C 
ATOM     15  O1  <0> d           0.022   6.421   0.037  0.00  0.00    -0.643 OA
ATOM     16  O2  <0> d           2.152   5.790   0.013  0.00  0.00    -0.643 OA
ENDBRANCH   4  14
TORSDOF 3
