REMARK  7 active torsions:
REMARK  status: ('A' for Active; 'I' for Inactive)
REMARK    1  A    between atoms: C1_1  and  C2_2 
REMARK    2  A    between atoms: C2_2  and  C3_3 
REMARK    3  A    between atoms: C3_3  and  C4_5 
REMARK    4  A    between atoms: C3_3  and  C5_6 
REMARK    5  A    between atoms: C5_6  and  C6_8 
REMARK    6  A    between atoms: C5_6  and  C8_10 
REMARK    7  A    between atoms: C6_8  and  C7_9 
REMARK       I    between atoms: C8_10  and  N1_12 
ROOT
ATOM      1  C5  <0> d          -2.899   1.636   2.463  0.00  0.00     0.026 C 
ATOM      2  H2  <0> d          -2.265   1.185   3.227  0.00  0.00     0.055 H 
ENDROOT
BRANCH   1   3
ATOM      3  C3  <0> d          -2.339   1.310   1.077  0.00  0.00    -0.046 C 
ATOM      4  H1  <0> d          -2.974   1.760   0.314  0.00  0.00     0.040 H 
BRANCH   3   5
ATOM      5  C2  <0> d          -0.920   1.869   0.956  0.00  0.00    -0.065 C 
ATOM      6  H6  <0> d          -0.266   1.354   1.660  0.00  0.00     0.033 H 
ATOM      7  H7  <0> d          -0.929   2.935   1.181  0.00  0.00     0.033 H 
BRANCH   5   8
ATOM      8  C1  <0> d          -0.407   1.652  -0.469  0.00  0.00    -0.076 C 
ATOM      9  H3  <0> d          -0.398   0.586  -0.694  0.00  0.00     0.027 H 
ATOM     10  H4  <0> d           0.604   2.050  -0.555  0.00  0.00     0.027 H 
ATOM     11  H5  <0> d          -1.062   2.167  -1.173  0.00  0.00     0.027 H 
ENDBRANCH   5   8
ENDBRANCH   3   5
BRANCH   3  12
ATOM     12  C4  <0> d          -2.308  -0.208   0.884  0.00  0.00    -0.072 C 
ATOM     13  H8  <0> d          -1.674  -0.658   1.648  0.00  0.00     0.028 H 
ATOM     14  H9  <0> d          -3.319  -0.606   0.971  0.00  0.00     0.028 H 
ATOM     15  H10 <0> d          -1.909  -0.440  -0.103  0.00  0.00     0.028 H 
ENDBRANCH   3  12
ENDBRANCH   1   3
BRANCH   1  16
ATOM     16  C6  <0> d          -2.930   3.153   2.657  0.00  0.00    -0.057 C 
ATOM     17  H11 <0> d          -1.935   3.562   2.481  0.00  0.00     0.033 H 
ATOM     18  H12 <0> d          -3.635   3.595   1.952  0.00  0.00     0.033 H 
BRANCH  16  19
ATOM     19  C7  <0> d          -3.370   3.477   4.086  0.00  0.00    -0.076 C 
ATOM     20  H13 <0> d          -4.402   3.156   4.230  0.00  0.00     0.027 H 
ATOM     21  H14 <0> d          -2.724   2.953   4.792  0.00  0.00     0.027 H 
ATOM     22  H15 <0> d          -3.296   4.551   4.255  0.00  0.00     0.027 H 
ENDBRANCH  16  19
ENDBRANCH   1  16
BRANCH   1  23
ATOM     23  C8  <0> d          -4.297   1.085   2.583  0.00  0.00     0.219 C 
ATOM     24  O1  <0> d          -5.236   1.715   2.145  0.00  0.00    -0.273 OA
ATOM     25  N1  <0> d          -4.503  -0.107   3.176  0.00  0.00    -0.370 N 
ATOM     26  H16 <0> d          -3.763  -0.577   3.591  0.00  0.00     0.159 HD
ATOM     27  H17 <0> d          -5.392  -0.495   3.189  0.00  0.00     0.159 HD
ENDBRANCH   1  23
TORSDOF 7
