REMARK  3 active torsions:
REMARK  status: ('A' for Active; 'I' for Inactive)
REMARK    1  A    between atoms: C1_1  and  C2_2 
REMARK    2  A    between atoms: C5_8  and  C6_9 
REMARK    3  A    between atoms: C5_8  and  C7_10 
ROOT
ATOM      1  C2  <0> d           0.002  -0.004   0.002  0.00  0.00    -0.026 C 
ATOM      2  H1  <0> d          -1.011  -0.406  -0.003  0.00  0.00     0.043 H 
ATOM      3  C3  <0> d           0.816  -0.540  -1.199  0.00  0.00     0.014 C 
ATOM      4  C4  <0> d           2.210  -0.736  -0.644  0.00  0.00     0.218 C 
ATOM      5  O1  <0> d           3.211  -0.875  -1.315  0.00  0.00    -0.274 OA
ATOM      6  N1  <0> d           2.177  -0.734   0.699  0.00  0.00    -0.352 N 
ATOM      7  C5  <0> d           0.808  -0.553   1.200  0.00  0.00     0.029 C 
ATOM      8  H5  <0> d           0.406  -1.489  -1.544  0.00  0.00     0.047 H 
ATOM      9  H6  <0> d           0.826   0.190  -2.008  0.00  0.00     0.047 H 
ATOM     10  H7  <0> d           2.958  -0.838   1.266  0.00  0.00     0.163 HD
ENDROOT
BRANCH   7  11
ATOM     11  C6  <0> d           0.230  -1.893   1.658  0.00  0.00    -0.053 C 
ATOM     12  H8  <0> d           0.279  -2.609   0.838  0.00  0.00     0.030 H 
ATOM     13  H9  <0> d           0.808  -2.268   2.503  0.00  0.00     0.030 H 
ATOM     14  H10 <0> d          -0.808  -1.756   1.960  0.00  0.00     0.030 H 
ENDBRANCH   7  11
BRANCH   7  15
ATOM     15  C7  <0> d           0.794   0.453   2.353  0.00  0.00    -0.053 C 
ATOM     16  H11 <0> d          -0.234   0.631   2.667  0.00  0.00     0.030 H 
ATOM     17  H12 <0> d           1.366   0.054   3.190  0.00  0.00     0.030 H 
ATOM     18  H13 <0> d           1.241   1.391   2.022  0.00  0.00     0.030 H 
ENDBRANCH   7  15
BRANCH   1  19
ATOM     19  C1  <0> d          -0.019   1.526   0.010  0.00  0.00    -0.070 C 
ATOM     20  H2  <0> d           1.004   1.903   0.003  0.00  0.00     0.028 H 
ATOM     21  H3  <0> d          -0.546   1.887  -0.873  0.00  0.00     0.028 H 
ATOM     22  H4  <0> d          -0.529   1.877   0.907  0.00  0.00     0.028 H 
ENDBRANCH   1  19
TORSDOF 3
