REMARK  1 active torsions:
REMARK  status: ('A' for Active; 'I' for Inactive)
REMARK    1  A    between atoms: C3_3  and  N2_10 
ROOT
ATOM      1  C1  <0> d          -0.570  -2.318  -0.004  0.00  0.00    -0.079 A 
ATOM      2  C2  <0> d           0.780  -2.636  -0.018  0.00  0.00    -0.055 A 
ATOM      3  C3  <0> d           1.748  -1.657  -0.023  0.00  0.00     0.056 A 
ATOM      4  C4  <0> d           1.386  -0.283  -0.013  0.00  0.00     0.100 A 
ATOM      5  C5  <0> d           0.002  -0.004   0.002  0.00  0.00     0.037 A 
ATOM      6  C6  <0> d          -0.955  -0.991   0.006  0.00  0.00    -0.064 A 
ATOM      7  S1  <0> d          -0.022   1.772   0.012  0.00  0.00    -0.080 SA
ATOM      8  C7  <0> d           1.748   2.019  -0.004  0.00  0.00     0.041 A 
ATOM      9  N1  <0> d           2.199   0.795  -0.015  0.00  0.00    -0.250 NA
ATOM     10  H1  <0> d          -1.314  -3.102  -0.000  0.00  0.00     0.083 H 
ATOM     11  H2  <0> d           1.079  -3.673  -0.026  0.00  0.00     0.087 H 
ATOM     12  H3  <0> d          -2.003  -0.731   0.018  0.00  0.00     0.085 H 
ATOM     13  H4  <0> d           2.303   2.946  -0.004  0.00  0.00     0.126 H 
ENDROOT
BRANCH   3  14
ATOM     14  N2  <0> d           3.097  -2.017  -0.038  0.00  0.00    -0.397 N 
ATOM     15  H5  <0> d           3.782  -1.331  -0.041  0.00  0.00     0.156 HD
ATOM     16  H6  <0> d           3.349  -2.954  -0.045  0.00  0.00     0.156 HD
ENDBRANCH   3  14
TORSDOF 1
