REMARK  1 active torsions:
REMARK  status: ('A' for Active; 'I' for Inactive)
REMARK    1  A    between atoms: C2_2  and  C3_3 
ROOT
ATOM      1  C1  <0> d           0.018  -1.178  -0.004  0.00  0.00    -0.149 C 
ATOM      2  C2  <0> d           0.002  -0.004   0.002  0.00  0.00    -0.078 C 
ATOM      3  H1  <0> d           0.032  -2.228  -0.010  0.00  0.00     0.166 H 
ENDROOT
BRANCH   2   4
ATOM      4  C3  <0> d          -0.017   1.428   0.010  0.00  0.00     0.021 A 
ATOM      5  C8  <0> d           1.181   2.143   0.002  0.00  0.00    -0.028 A 
ATOM      6  C7  <0> d           1.164   3.526   0.004  0.00  0.00     0.119 A 
ATOM      7  H4  <0> d           2.123   1.616  -0.009  0.00  0.00     0.090 H 
ATOM      8  C6  <0> d          -0.038   4.208   0.025  0.00  0.00    -0.026 A 
ATOM      9  F1  <0> d           2.327   4.214  -0.009  0.00  0.00    -0.206 F 
ATOM     10  C5  <0> d          -1.244   3.503   0.038  0.00  0.00     0.049 A 
ATOM     11  H3  <0> d          -0.046   5.288   0.030  0.00  0.00     0.090 H 
ATOM     12  C4  <0> d          -1.232   2.109   0.031  0.00  0.00    -0.045 A 
ATOM     13  C9  <0> d          -2.489   4.210   0.060  0.00  0.00     0.099 C 
ATOM     14  H2  <0> d          -2.162   1.559   0.041  0.00  0.00     0.088 H 
ATOM     15  N1  <0> d          -3.477   4.771   0.076  0.00  0.00    -0.191 NA
ENDBRANCH   2   4
TORSDOF 1
