REMARK  2 active torsions:
REMARK  status: ('A' for Active; 'I' for Inactive)
REMARK    1  A    between atoms: C1_1  and  O1_2 
REMARK    2  A    between atoms: O1_2  and  C2_3 
REMARK       I    between atoms: C2_3  and  N1_5 
ROOT
ATOM      1  C2  <0> d          -0.014   1.210   0.009  0.00  0.00     0.370 C 
ATOM      2  O2  <0> d           0.002  -0.004   0.002  0.00  0.00    -0.238 OA
ATOM      3  N1  <0> d          -1.191   1.868   0.018  0.00  0.00    -0.280 N 
ATOM      4  C3  <0> d          -1.346   3.229   0.032  0.00  0.00    -0.011 A 
ATOM      5  C4  <0> d          -2.664   3.501   0.034  0.00  0.00    -0.066 A 
ATOM      6  C5  <0> d          -3.354   2.269   0.030  0.00  0.00    -0.066 A 
ATOM      7  C6  <0> d          -2.432   1.288   0.021  0.00  0.00    -0.011 A 
ATOM      8  H4  <0> d          -0.549   3.958   0.038  0.00  0.00     0.112 H 
ATOM      9  H5  <0> d          -3.113   4.483   0.041  0.00  0.00     0.085 H 
ATOM     10  H6  <0> d          -4.426   2.138   0.035  0.00  0.00     0.085 H 
ATOM     11  H7  <0> d          -2.636   0.227   0.015  0.00  0.00     0.112 H 
ENDROOT
BRANCH   1  12
ATOM     12  O1  <0> d           1.142   1.899   0.001  0.00  0.00    -0.308 OA
BRANCH  12  13
ATOM     13  C1  <0> d           2.370   1.124  -0.015  0.00  0.00     0.015 C 
ATOM     14  H1  <0> d           3.225   1.800  -0.019  0.00  0.00     0.067 H 
ATOM     15  H2  <0> d           2.412   0.491   0.872  0.00  0.00     0.067 H 
ATOM     16  H3  <0> d           2.395   0.501  -0.908  0.00  0.00     0.067 H 
ENDBRANCH  12  13
ENDBRANCH   1  12
TORSDOF 2
