REMARK  1 active torsions:
REMARK  status: ('A' for Active; 'I' for Inactive)
REMARK    1  A    between atoms: C1_1  and  C2_2 
ROOT
ATOM      1  C2  <0> d           0.002  -0.004   0.002  0.00  0.00     0.142 A 
ATOM      2  N1  <0> d           1.226  -0.438  -0.012  0.00  0.00    -0.226 NA
ATOM      3  C3  <0> d           2.070   0.630  -0.014  0.00  0.00     0.093 A 
ATOM      4  C4  <0> d           3.459   0.764  -0.027  0.00  0.00    -0.052 A 
ATOM      5  C5  <0> d           4.024   2.019  -0.025  0.00  0.00    -0.081 A 
ATOM      6  C6  <0> d           3.222   3.151  -0.012  0.00  0.00    -0.080 A 
ATOM      7  C7  <0> d           1.848   3.033   0.001  0.00  0.00    -0.048 A 
ATOM      8  C8  <0> d           1.262   1.777  -0.000  0.00  0.00     0.106 A 
ATOM      9  O1  <0> d          -0.016   1.338   0.009  0.00  0.00    -0.294 OA
ATOM     10  H4  <0> d           4.088  -0.114  -0.038  0.00  0.00     0.087 H 
ATOM     11  H5  <0> d           5.099   2.124  -0.035  0.00  0.00     0.083 H 
ATOM     12  H6  <0> d           3.676   4.130  -0.012  0.00  0.00     0.083 H 
ATOM     13  H7  <0> d           1.230   3.919   0.012  0.00  0.00     0.087 H 
ENDROOT
BRANCH   1  14
ATOM     14  C1  <0> d          -1.223  -0.882   0.009  0.00  0.00    -0.015 C 
ATOM     15  H1  <0> d          -1.528  -1.088  -1.016  0.00  0.00     0.038 H 
ATOM     16  H2  <0> d          -0.994  -1.820   0.516  0.00  0.00     0.038 H 
ATOM     17  H3  <0> d          -2.031  -0.373   0.534  0.00  0.00     0.038 H 
ENDBRANCH   1  14
TORSDOF 1
