REMARK  3 active torsions:
REMARK  status: ('A' for Active; 'I' for Inactive)
REMARK    1  A    between atoms: C1_1  and  C2_2 
REMARK    2  A    between atoms: C3_3  and  C7_9 
REMARK    3  A    between atoms: C5_6  and  C6_8 
ROOT
ATOM      1  C2  <0> d           1.320   2.064  -0.007  0.00  0.00     0.051 A 
ATOM      2  C3  <0> d           0.072   1.487   0.258  0.00  0.00     0.082 A 
ATOM      3  C4  <0> d          -0.024   0.090   0.246  0.00  0.00     0.023 A 
ATOM      4  N1  <0> d           1.058  -0.623  -0.012  0.00  0.00    -0.245 NA
ATOM      5  C5  <0> d           2.214  -0.037  -0.256  0.00  0.00     0.122 A 
ATOM      6  N2  <0> d           2.349   1.275  -0.256  0.00  0.00    -0.238 NA
ATOM      7  H4  <0> d          -0.968  -0.397   0.445  0.00  0.00     0.116 H 
ENDROOT
BRANCH   1   8
ATOM      8  C1  <0> d           1.485   3.562  -0.009  0.00  0.00    -0.034 C 
ATOM      9  H1  <0> d           1.638   3.912   1.012  0.00  0.00     0.035 H 
ATOM     10  H2  <0> d           2.348   3.832  -0.619  0.00  0.00     0.035 H 
ATOM     11  H3  <0> d           0.590   4.026  -0.423  0.00  0.00     0.035 H 
ENDBRANCH   1   8
BRANCH   2  12
ATOM     12  C7  <0> d          -1.111   2.327   0.535  0.00  0.00     0.212 C 
ATOM     13  O1  <0> d          -0.987   3.530   0.650  0.00  0.00    -0.644 OA
ATOM     14  O2  <0> d          -2.326   1.760   0.661  0.00  0.00    -0.644 OA
ENDBRANCH   2  12
BRANCH   5  15
ATOM     15  C6  <0> d           3.419  -0.895  -0.545  0.00  0.00    -0.019 C 
ATOM     16  H5  <0> d           3.486  -1.078  -1.618  0.00  0.00     0.037 H 
ATOM     17  H6  <0> d           4.320  -0.382  -0.208  0.00  0.00     0.037 H 
ATOM     18  H7  <0> d           3.324  -1.845  -0.020  0.00  0.00     0.037 H 
ENDBRANCH   5  15
TORSDOF 3
