REMARK  1 active torsions:
REMARK  status: ('A' for Active; 'I' for Inactive)
REMARK    1  A    between atoms: C1_1  and  C2_2 
ROOT
ATOM      1  C2  <0> d           1.159   2.049   0.002  0.00  0.00    -0.020 A 
ATOM      2  C3  <0> d          -0.017   1.370   0.010  0.00  0.00    -0.069 A 
ATOM      3  C4  <0> d           0.002  -0.004   0.002  0.00  0.00    -0.055 A 
ATOM      4  C5  <0> d           1.245  -0.618  -0.013  0.00  0.00     0.085 A 
ATOM      5  S1  <0> d           2.346   0.785  -0.016  0.00  0.00    -0.084 SA
ATOM      6  C6  <0> d           1.562  -2.014  -0.023  0.00  0.00     0.107 C 
ATOM      7  N1  <0> d           1.813  -3.122  -0.031  0.00  0.00    -0.191 NA
ATOM      8  H4  <0> d          -0.956   1.903   0.017  0.00  0.00     0.085 H 
ATOM      9  H5  <0> d          -0.911  -0.580   0.008  0.00  0.00     0.086 H 
ENDROOT
BRANCH   1  10
ATOM     10  C1  <0> d           1.379   3.540   0.008  0.00  0.00    -0.045 C 
ATOM     11  H1  <0> d           1.442   3.893   1.037  0.00  0.00     0.034 H 
ATOM     12  H2  <0> d           2.308   3.772  -0.514  0.00  0.00     0.034 H 
ATOM     13  H3  <0> d           0.547   4.032  -0.495  0.00  0.00     0.034 H 
ENDBRANCH   1  10
TORSDOF 1
