REMARK  4 active torsions:
REMARK  status: ('A' for Active; 'I' for Inactive)
REMARK    1  A    between atoms: C1_1  and  C2_2 
REMARK    2  A    between atoms: C2_2  and  C3_3 
REMARK    3  A    between atoms: C3_3  and  C4_5 
REMARK    4  A    between atoms: C9_10  and  O2_11 
ROOT
ATOM      1  C4  <0> d          -1.660  -1.972   0.007  0.00  0.00     0.043 A 
ATOM      2  C5  <0> d          -0.587  -2.872  -0.014  0.00  0.00    -0.067 A 
ATOM      3  C6  <0> d          -0.829  -4.227  -0.014  0.00  0.00    -0.082 A 
ATOM      4  C7  <0> d          -2.129  -4.707  -0.004  0.00  0.00    -0.080 A 
ATOM      5  C8  <0> d          -3.197  -3.833   0.011  0.00  0.00    -0.050 A 
ATOM      6  C9  <0> d          -2.976  -2.464   0.017  0.00  0.00     0.079 A 
ATOM      7  H6  <0> d           0.427  -2.503  -0.025  0.00  0.00     0.085 H 
ATOM      8  H7  <0> d          -0.001  -4.920  -0.026  0.00  0.00     0.083 H 
ATOM      9  H8  <0> d          -2.308  -5.772  -0.009  0.00  0.00     0.083 H 
ATOM     10  H9  <0> d          -4.207  -4.215   0.019  0.00  0.00     0.087 H 
ENDROOT
BRANCH   1  11
ATOM     11  C3  <0> d          -1.412  -0.526   0.013  0.00  0.00     0.162 C 
ATOM     12  O1  <0> d          -2.344   0.250   0.026  0.00  0.00    -0.292 OA
BRANCH  11  13
ATOM     13  C2  <0> d           0.002  -0.004   0.002  0.00  0.00    -0.008 C 
ATOM     14  H4  <0> d           0.470  -0.327  -0.821  0.00  0.00     0.044 H 
ATOM     15  H5  <0> d           0.529  -0.365   0.885  0.00  0.00     0.044 H 
BRANCH  13  16
ATOM     16  C1  <0> d          -0.019   1.526   0.010  0.00  0.00    -0.070 C 
ATOM     17  H1  <0> d           1.004   1.903   0.003  0.00  0.00     0.028 H 
ATOM     18  H2  <0> d          -0.546   1.887  -0.873  0.00  0.00     0.028 H 
ATOM     19  H3  <0> d          -0.529   1.877   0.907  0.00  0.00     0.028 H 
ENDBRANCH  13  16
ENDBRANCH  11  13
ENDBRANCH   1  11
BRANCH   6  20
ATOM     20  O2  <0> d          -4.024  -1.604   0.032  0.00  0.00    -0.360 OA
ATOM     21  H10 <0> d          -4.337  -1.349  -0.847  0.00  0.00     0.217 HD
ENDBRANCH   6  20
TORSDOF 4
