REMARK  3 active torsions:
REMARK  status: ('A' for Active; 'I' for Inactive)
REMARK    1  A    between atoms: C1_1  and  C2_2 
REMARK    2  A    between atoms: C2_2  and  C3_3 
REMARK    3  A    between atoms: C3_3  and  C4_5 
ROOT
ATOM      1  C4  <0> d          -1.228   3.141   0.031  0.00  0.00     0.012 A 
ATOM      2  C5  <0> d          -1.223   1.740   0.017  0.00  0.00    -0.053 A 
ATOM      3  C6  <0> d          -0.013   1.076   0.008  0.00  0.00     0.003 A 
ATOM      4  N1  <0> d           1.125   1.741   0.001  0.00  0.00    -0.273 NA
ATOM      5  C7  <0> d           1.167   3.059   0.007  0.00  0.00     0.003 A 
ATOM      6  C8  <0> d           0.005   3.805   0.022  0.00  0.00    -0.053 A 
ATOM      7  H6  <0> d          -2.152   1.189   0.018  0.00  0.00     0.087 H 
ATOM      8  H7  <0> d           0.002  -0.004   0.002  0.00  0.00     0.114 H 
ATOM      9  H8  <0> d           2.122   3.561   0.001  0.00  0.00     0.114 H 
ATOM     10  H9  <0> d           0.046   4.884   0.028  0.00  0.00     0.087 H 
ENDROOT
BRANCH   1  11
ATOM     11  C3  <0> d          -2.497   3.895   0.047  0.00  0.00     0.159 C 
ATOM     12  O1  <0> d          -2.481   5.103   0.054  0.00  0.00    -0.292 OA
BRANCH  11  13
ATOM     13  C2  <0> d          -3.811   3.158   0.056  0.00  0.00    -0.008 C 
ATOM     14  H4  <0> d          -3.880   2.589  -0.763  0.00  0.00     0.044 H 
ATOM     15  H5  <0> d          -3.868   2.527   0.943  0.00  0.00     0.044 H 
BRANCH  13  16
ATOM     16  C1  <0> d          -4.961   4.168   0.073  0.00  0.00    -0.070 C 
ATOM     17  H1  <0> d          -4.887   4.788   0.966  0.00  0.00     0.028 H 
ATOM     18  H2  <0> d          -4.904   4.798  -0.814  0.00  0.00     0.028 H 
ATOM     19  H3  <0> d          -5.912   3.635   0.079  0.00  0.00     0.028 H 
ENDBRANCH  13  16
ENDBRANCH  11  13
ENDBRANCH   1  11
TORSDOF 3
