REMARK  2 active torsions:
REMARK  status: ('A' for Active; 'I' for Inactive)
REMARK    1  A    between atoms: C1_1  and  C2_2 
REMARK    2  A    between atoms: C5_7  and  C6_10 
ROOT
ATOM      1  C2  <0> d           0.002  -0.004   0.002  0.00  0.00     0.040 C 
ATOM      2  H1  <0> d           0.427  -0.358  -0.937  0.00  0.00     0.083 H 
ATOM      3  C3  <0> d          -0.019   1.528   0.010  0.00  0.00    -0.021 C 
ATOM      4  C4  <0> d           1.425   2.043  -0.001  0.00  0.00     0.025 C 
ATOM      5  O1  <0> d           2.137   1.453   1.092  0.00  0.00    -0.362 OA
ATOM      6  C5  <0> d           2.148   0.024   1.067  0.00  0.00     0.128 C 
ATOM      7  H2  <0> d           2.641  -0.320   0.159  0.00  0.00     0.128 H 
ATOM      8  O2  <0> d           0.804  -0.464   1.094  0.00  0.00    -0.357 OA
ATOM      9  H6  <0> d          -0.543   1.891  -0.874  0.00  0.00     0.040 H 
ATOM     10  H7  <0> d          -0.526   1.882   0.908  0.00  0.00     0.040 H 
ATOM     11  H8  <0> d           1.904   1.767  -0.940  0.00  0.00     0.074 H 
ATOM     12  H9  <0> d           1.426   3.128   0.106  0.00  0.00     0.074 H 
ENDROOT
BRANCH   1  13
ATOM     13  C1  <0> d          -1.425  -0.536   0.152  0.00  0.00    -0.052 C 
ATOM     14  H3  <0> d          -2.035  -0.178  -0.677  0.00  0.00     0.030 H 
ATOM     15  H4  <0> d          -1.408  -1.626   0.145  0.00  0.00     0.030 H 
ATOM     16  H5  <0> d          -1.847  -0.185   1.093  0.00  0.00     0.030 H 
ENDBRANCH   1  13
BRANCH   6  17
ATOM     17  C6  <0> d           2.905  -0.501   2.289  0.00  0.00    -0.031 C 
ATOM     18  H10 <0> d           2.914  -1.591   2.270  0.00  0.00     0.034 H 
ATOM     19  H11 <0> d           3.930  -0.129   2.269  0.00  0.00     0.034 H 
ATOM     20  H12 <0> d           2.412  -0.157   3.198  0.00  0.00     0.034 H 
ENDBRANCH   6  17
TORSDOF 2
