REMARK  3 active torsions:
REMARK  status: ('A' for Active; 'I' for Inactive)
REMARK    1  A    between atoms: C1_1  and  N1_2 
REMARK    2  A    between atoms: N1_2  and  C2_3 
REMARK    3  A    between atoms: N1_2  and  C3_4 
ROOT
ATOM      1  C3  <0> d          -1.225   1.754   0.019  0.00  0.00     0.032 A 
ATOM      2  C4  <0> d          -0.013   1.076   0.024  0.00  0.00    -0.057 A 
ATOM      3  C5  <0> d           1.174   1.782   0.018  0.00  0.00    -0.078 A 
ATOM      4  C6  <0> d           1.157   3.165   0.012  0.00  0.00    -0.046 A 
ATOM      5  C7  <0> d          -0.049   3.846   0.013  0.00  0.00     0.118 A 
ATOM      6  C8  <0> d          -1.240   3.143   0.019  0.00  0.00    -0.020 A 
ATOM      7  F1  <0> d          -0.062   5.197   0.007  0.00  0.00    -0.206 F 
ATOM      8  H7  <0> d           0.002  -0.004   0.029  0.00  0.00     0.086 H 
ATOM      9  H8  <0> d           2.116   1.254   0.018  0.00  0.00     0.083 H 
ATOM     10  H9  <0> d           2.087   3.715   0.007  0.00  0.00     0.088 H 
ATOM     11  H10 <0> d          -2.181   3.673   0.020  0.00  0.00     0.091 H 
ENDROOT
BRANCH   1  12
ATOM     12  N1  <0> d          -2.426   1.041   0.019  0.00  0.00    -0.389 N 
BRANCH  12  13
ATOM     13  C1  <0> d          -2.411  -0.419  -0.101  0.00  0.00    -0.019 C 
ATOM     14  H1  <0> d          -2.357  -0.865   0.892  0.00  0.00     0.056 H 
ATOM     15  H2  <0> d          -3.321  -0.752  -0.600  0.00  0.00     0.056 H 
ATOM     16  H3  <0> d          -1.543  -0.726  -0.685  0.00  0.00     0.056 H 
ENDBRANCH  12  13
BRANCH  12  17
ATOM     17  C2  <0> d          -3.701   1.753   0.140  0.00  0.00    -0.019 C 
ATOM     18  H4  <0> d          -3.519   2.828   0.128  0.00  0.00     0.056 H 
ATOM     19  H5  <0> d          -4.347   1.485  -0.696  0.00  0.00     0.056 H 
ATOM     20  H6  <0> d          -4.184   1.477   1.077  0.00  0.00     0.056 H 
ENDBRANCH  12  17
ENDBRANCH   1  12
TORSDOF 3
