REMARK  1 active torsions:
REMARK  status: ('A' for Active; 'I' for Inactive)
REMARK    1  A    between atoms: C1_1  and  C2_2 
ROOT
ATOM      1  C2  <0> d           1.209  -0.669  -0.013  0.00  0.00    -0.022 A 
ATOM      2  C3  <0> d           2.402   0.043  -0.021  0.00  0.00    -0.072 A 
ATOM      3  C4  <0> d           2.399   1.420  -0.013  0.00  0.00    -0.056 A 
ATOM      4  C5  <0> d           1.192   2.112   0.002  0.00  0.00     0.045 A 
ATOM      5  C6  <0> d          -0.017   1.394   0.010  0.00  0.00     0.031 A 
ATOM      6  C7  <0> d           0.002  -0.004   0.002  0.00  0.00     0.134 A 
ATOM      7  F1  <0> d          -1.156  -0.699   0.010  0.00  0.00    -0.205 F 
ATOM      8  C8  <0> d          -1.085   2.397   0.019  0.00  0.00    -0.053 A 
ATOM      9  C9  <0> d          -0.492   3.601   0.025  0.00  0.00    -0.022 A 
ATOM     10  N1  <0> d           0.869   3.451   0.012  0.00  0.00    -0.365 N 
ATOM     11  H1  <0> d           1.510   4.179   0.009  0.00  0.00     0.165 HD
ATOM     12  H5  <0> d           3.341  -0.490  -0.033  0.00  0.00     0.084 H 
ATOM     13  H6  <0> d           3.333   1.962  -0.019  0.00  0.00     0.087 H 
ATOM     14  H7  <0> d          -2.147   2.204   0.023  0.00  0.00     0.087 H 
ATOM     15  H8  <0> d          -1.011   4.548   0.035  0.00  0.00     0.111 H 
ENDROOT
BRANCH   1  16
ATOM     16  C1  <0> d           1.236  -2.175  -0.021  0.00  0.00    -0.048 C 
ATOM     17  H2  <0> d           1.232  -2.533  -1.051  0.00  0.00     0.033 H 
ATOM     18  H3  <0> d           2.137  -2.526   0.482  0.00  0.00     0.033 H 
ATOM     19  H4  <0> d           0.357  -2.557   0.499  0.00  0.00     0.033 H 
ENDBRANCH   1  16
TORSDOF 1
