REMARK  3 active torsions:
REMARK  status: ('A' for Active; 'I' for Inactive)
REMARK    1  A    between atoms: C1_1  and  C2_2 
REMARK    2  A    between atoms: C2_2  and  C9_13 
REMARK    3  A    between atoms: C8_10  and  O1_12 
ROOT
ATOM      1  C2  <0> d          -0.104   3.215   1.252  0.00  0.00    -0.044 C 
ATOM      2  C3  <0> d          -0.614   1.766   0.937  0.00  0.00    -0.053 C 
ATOM      3  C4  <0> d           0.234   1.322  -0.294  0.00  0.00    -0.028 C 
ATOM      4  H1  <0> d           0.285   0.248  -0.474  0.00  0.00     0.043 H 
ATOM      5  C5  <0> d           1.595   2.038   0.018  0.00  0.00    -0.055 C 
ATOM      6  C6  <0> d           0.993   3.478   0.176  0.00  0.00    -0.045 C 
ATOM      7  H2  <0> d           1.702   4.275   0.403  0.00  0.00     0.041 H 
ATOM      8  C7  <0> d           0.220   3.617  -1.171  0.00  0.00    -0.037 C 
ATOM      9  C8  <0> d          -0.282   2.189  -1.482  0.00  0.00     0.039 C 
ATOM     10  H3  <0> d           0.139   1.834  -2.423  0.00  0.00     0.083 H 
ATOM     11  H7  <0> d          -1.674   1.785   0.681  0.00  0.00     0.034 H 
ATOM     12  H8  <0> d          -0.437   1.100   1.781  0.00  0.00     0.034 H 
ATOM     13  H9  <0> d           2.044   1.678   0.944  0.00  0.00     0.034 H 
ATOM     14  H10 <0> d           2.291   1.975  -0.819  0.00  0.00     0.034 H 
ATOM     15  H11 <0> d          -0.622   4.300  -1.058  0.00  0.00     0.037 H 
ATOM     16  H12 <0> d           0.888   3.967  -1.958  0.00  0.00     0.037 H 
ENDROOT
BRANCH   1  17
ATOM     17  C1  <0> d           0.498   3.287   2.657  0.00  0.00    -0.069 C 
ATOM     18  H4  <0> d           0.925   4.277   2.819  0.00  0.00     0.028 H 
ATOM     19  H5  <0> d          -0.281   3.101   3.396  0.00  0.00     0.028 H 
ATOM     20  H6  <0> d           1.280   2.534   2.756  0.00  0.00     0.028 H 
ENDBRANCH   1  17
BRANCH   1  21
ATOM     21  C9  <0> d          -1.244   4.226   1.110  0.00  0.00    -0.069 C 
ATOM     22  H14 <0> d          -1.777   4.044   0.176  0.00  0.00     0.028 H 
ATOM     23  H15 <0> d          -1.933   4.117   1.948  0.00  0.00     0.028 H 
ATOM     24  H16 <0> d          -0.835   5.236   1.104  0.00  0.00     0.028 H 
ENDBRANCH   1  21
BRANCH   9  25
ATOM     25  O1  <0> d          -1.710   2.163  -1.534  0.00  0.00    -0.395 OA
ATOM     26  H13 <0> d          -2.087   2.687  -2.255  0.00  0.00     0.210 HD
ENDBRANCH   9  25
TORSDOF 3
