REMARK  3 active torsions:
REMARK  status: ('A' for Active; 'I' for Inactive)
REMARK    1  A    between atoms: C1_1  and  O1_2 
REMARK    2  A    between atoms: O1_2  and  C2_3 
REMARK    3  A    between atoms: C3_4  and  N3_10 
ROOT
ATOM      1  C2  <0> d          -1.226   2.418   0.021  0.00  0.00     0.154 A 
ATOM      2  C3  <0> d          -1.191   3.817   0.033  0.00  0.00     0.159 A 
ATOM      3  N1  <0> d          -0.012   4.430   0.025  0.00  0.00    -0.222 NA
ATOM      4  C4  <0> d           1.109   3.737   0.011  0.00  0.00     0.090 A 
ATOM      5  N2  <0> d           1.113   2.420   0.004  0.00  0.00    -0.227 NA
ATOM      6  C5  <0> d          -0.021   1.732   0.012  0.00  0.00     0.164 A 
ATOM      7 Cl1  <0> d           0.002  -0.004   0.002  0.00  0.00    -0.059 Cl
ATOM      8  H4  <0> d           2.051   4.264   0.005  0.00  0.00     0.146 H 
ENDROOT
BRANCH   1   9
ATOM      9  O1  <0> d          -2.411   1.749   0.023  0.00  0.00    -0.350 OA
BRANCH   9  10
ATOM     10  C1  <0> d          -2.970   1.424   1.298  0.00  0.00     0.011 C 
ATOM     11  H1  <0> d          -2.274   0.790   1.848  0.00  0.00     0.067 H 
ATOM     12  H2  <0> d          -3.149   2.340   1.860  0.00  0.00     0.067 H 
ATOM     13  H3  <0> d          -3.911   0.893   1.157  0.00  0.00     0.067 H 
ENDBRANCH   9  10
ENDBRANCH   1   9
BRANCH   2  14
ATOM     14  N3  <0> d          -2.369   4.552   0.049  0.00  0.00    -0.382 N 
ATOM     15  H5  <0> d          -2.335   5.521   0.054  0.00  0.00     0.157 HD
ATOM     16  H6  <0> d          -3.225   4.096   0.055  0.00  0.00     0.157 HD
ENDBRANCH   2  14
TORSDOF 3
