REMARK  5 active torsions:
REMARK  status: ('A' for Active; 'I' for Inactive)
REMARK    1  A    between atoms: C1_1  and  C2_2 
REMARK    2  A    between atoms: C6_6  and  C9_11 
REMARK    3  A    between atoms: C6_6  and  C10_12 
REMARK    4  A    between atoms: C7_7  and  C8_9 
REMARK    5  A    between atoms: C8_9  and  O1_10 
ROOT
ATOM      1  C2  <0> d           1.403   1.533   0.048  0.00  0.00    -0.081 C 
ATOM      2  C3  <0> d           1.970   2.193  -0.911  0.00  0.00    -0.101 C 
ATOM      3  C4  <0> d           1.359   2.398  -2.267  0.00  0.00    -0.049 C 
ATOM      4  C5  <0> d           0.225   1.396  -2.491  0.00  0.00    -0.055 C 
ATOM      5  C6  <0> d          -0.702   1.431  -1.269  0.00  0.00    -0.038 C 
ATOM      6  C7  <0> d           0.060   0.872  -0.066  0.00  0.00    -0.006 C 
ATOM      7  H1  <0> d           0.196  -0.202  -0.192  0.00  0.00     0.051 H 
ATOM      8  H5  <0> d           2.943   2.623  -0.724  0.00  0.00     0.077 H 
ATOM      9  H6  <0> d           0.965   3.411  -2.336  0.00  0.00     0.038 H 
ATOM     10  H7  <0> d           2.122   2.254  -3.032  0.00  0.00     0.038 H 
ATOM     11  H8  <0> d          -0.336   1.670  -3.384  0.00  0.00     0.034 H 
ATOM     12  H9  <0> d           0.639   0.394  -2.611  0.00  0.00     0.034 H 
ENDROOT
BRANCH   5  13
ATOM     13  C9  <0> d          -1.940   0.573  -1.538  0.00  0.00    -0.069 C 
ATOM     14  H13 <0> d          -2.588   0.585  -0.661  0.00  0.00     0.028 H 
ATOM     15  H14 <0> d          -2.481   0.973  -2.395  0.00  0.00     0.028 H 
ATOM     16  H15 <0> d          -1.633  -0.452  -1.748  0.00  0.00     0.028 H 
ENDBRANCH   5  13
BRANCH   5  17
ATOM     17  C10 <0> d          -1.124   2.874  -0.985  0.00  0.00    -0.069 C 
ATOM     18  H16 <0> d          -0.238   3.483  -0.804  0.00  0.00     0.028 H 
ATOM     19  H17 <0> d          -1.667   3.270  -1.844  0.00  0.00     0.028 H 
ATOM     20  H18 <0> d          -1.768   2.898  -0.106  0.00  0.00     0.028 H 
ENDBRANCH   5  17
BRANCH   6  21
ATOM     21  C8  <0> d          -0.744   1.136   1.208  0.00  0.00     0.024 C 
ATOM     22  H10 <0> d          -0.780   2.208   1.400  0.00  0.00     0.075 H 
ATOM     23  H11 <0> d          -1.758   0.755   1.083  0.00  0.00     0.075 H 
BRANCH  21  24
ATOM     24  O1  <0> d          -0.120   0.475   2.311  0.00  0.00    -0.400 OA
ATOM     25  H12 <0> d          -0.578   0.599   3.154  0.00  0.00     0.209 HD
ENDBRANCH  21  24
ENDBRANCH   6  21
BRANCH   1  26
ATOM     26  C1  <0> d           2.137   1.422   1.359  0.00  0.00    -0.054 C 
ATOM     27  H2  <0> d           2.236   0.371   1.632  0.00  0.00     0.033 H 
ATOM     28  H3  <0> d           3.127   1.867   1.260  0.00  0.00     0.033 H 
ATOM     29  H4  <0> d           1.578   1.947   2.134  0.00  0.00     0.033 H 
ENDBRANCH   1  26
TORSDOF 5
