REMARK  5 active torsions:
REMARK  status: ('A' for Active; 'I' for Inactive)
REMARK    1  A    between atoms: C1_1  and  C2_2 
REMARK    2  A    between atoms: C2_2  and  C3_4 
REMARK    3  A    between atoms: C2_2  and  O2_7 
REMARK    4  A    between atoms: C3_4  and  C4_5 
REMARK    5  A    between atoms: O2_7  and  C5_8 
ROOT
ATOM      1  C2  <0> d          -0.013   1.086   0.008  0.00  0.00     0.043 C 
ATOM      2  H1  <0> d           0.002  -0.004   0.002  0.00  0.00     0.083 H 
ENDROOT
BRANCH   1   3
ATOM      3  C1  <0> d          -0.729   1.579   1.267  0.00  0.00    -0.052 C 
ATOM      4  H2  <0> d          -0.202   1.218   2.150  0.00  0.00     0.030 H 
ATOM      5  H3  <0> d          -0.744   2.669   1.273  0.00  0.00     0.030 H 
ATOM      6  H4  <0> d          -1.751   1.202   1.275  0.00  0.00     0.030 H 
ENDBRANCH   1   3
BRANCH   1   7
ATOM      7  C3  <0> d           1.423   1.615  -0.003  0.00  0.00     0.039 C 
ATOM      8  H5  <0> d           1.408   2.702  -0.086  0.00  0.00     0.052 H 
ATOM      9  H6  <0> d           1.923   1.329   0.922  0.00  0.00     0.052 H 
BRANCH   7  10
ATOM     10  C4  <0> d           2.165   1.031  -1.177  0.00  0.00     0.175 C 
ATOM     11  O1  <0> d           1.603   0.269  -1.928  0.00  0.00    -0.648 OA
ATOM     12  O3  <0> d           3.450   1.357  -1.389  0.00  0.00    -0.648 OA
ENDBRANCH   7  10
ENDBRANCH   1   7
BRANCH   1  13
ATOM     13  O2  <0> d          -0.704   1.559  -1.150  0.00  0.00    -0.391 OA
BRANCH  13  14
ATOM     14  C5  <0> d          -1.724   0.676  -1.619  0.00  0.00     0.004 C 
ATOM     15  H7  <0> d          -1.281  -0.285  -1.880  0.00  0.00     0.066 H 
ATOM     16  H8  <0> d          -2.469   0.532  -0.837  0.00  0.00     0.066 H 
ATOM     17  H9  <0> d          -2.201   1.107  -2.500  0.00  0.00     0.066 H 
ENDBRANCH  13  14
ENDBRANCH   1  13
TORSDOF 5
