REMARK  7 active torsions:
REMARK  status: ('A' for Active; 'I' for Inactive)
REMARK    1  A    between atoms: C1_1  and  C2_2 
REMARK       I    between atoms: C2_2  and  N1_4 
REMARK    2  A    between atoms: N1_4  and  C3_5 
REMARK    3  A    between atoms: C3_5  and  C4_6 
REMARK    4  A    between atoms: C3_5  and  C5_7 
REMARK    5  A    between atoms: C3_5  and  C6_8 
REMARK    6  A    between atoms: C6_8  and  O3_10 
REMARK    7  A    between atoms: O3_10  and  C7_11 
ROOT
ATOM      1  C3  <0> d          -1.136  -2.159   0.001  0.00  0.00     0.113 C 
ENDROOT
BRANCH   1   2
ATOM      2  N1  <0> d          -1.156  -0.694   0.009  0.00  0.00    -0.344 N 
ATOM      3  C2  <0> d           0.002  -0.004   0.002  0.00  0.00     0.214 C 
ATOM      4  O1  <0> d           1.060  -0.596  -0.011  0.00  0.00    -0.274 OA
ATOM      5  H4  <0> d          -2.002  -0.220   0.020  0.00  0.00     0.163 HD
BRANCH   3   6
ATOM      6  C1  <0> d          -0.018   1.503   0.010  0.00  0.00    -0.003 C 
ATOM      7  H1  <0> d           1.004   1.880   0.003  0.00  0.00     0.040 H 
ATOM      8  H2  <0> d          -0.545   1.864  -0.873  0.00  0.00     0.040 H 
ATOM      9  H3  <0> d          -0.529   1.854   0.907  0.00  0.00     0.040 H 
ENDBRANCH   3   6
ENDBRANCH   1   2
BRANCH   1  10
ATOM     10  C4  <0> d          -0.420  -2.652  -1.258  0.00  0.00    -0.044 C 
ATOM     11  H5  <0> d           0.603  -2.275  -1.265  0.00  0.00     0.031 H 
ATOM     12  H6  <0> d          -0.405  -3.742  -1.264  0.00  0.00     0.031 H 
ATOM     13  H7  <0> d          -0.947  -2.291  -2.141  0.00  0.00     0.031 H 
ENDBRANCH   1  10
BRANCH   1  14
ATOM     14  C5  <0> d          -0.396  -2.665   1.241  0.00  0.00    -0.044 C 
ATOM     15  H8  <0> d          -0.906  -2.314   2.138  0.00  0.00     0.031 H 
ATOM     16  H9  <0> d          -0.381  -3.755   1.235  0.00  0.00     0.031 H 
ATOM     17  H10 <0> d           0.627  -2.288   1.233  0.00  0.00     0.031 H 
ENDBRANCH   1  14
BRANCH   1  18
ATOM     18  C6  <0> d          -2.550  -2.680   0.012  0.00  0.00     0.286 C 
ATOM     19  O2  <0> d          -2.826  -3.690  -0.591  0.00  0.00    -0.262 OA
BRANCH  18  20
ATOM     20  O3  <0> d          -3.503  -2.023   0.691  0.00  0.00    -0.325 OA
BRANCH  20  21
ATOM     21  C7  <0> d          -4.821  -2.574   0.658  0.00  0.00     0.013 C 
ATOM     22  H11 <0> d          -5.492  -1.947   1.246  0.00  0.00     0.067 H 
ATOM     23  H12 <0> d          -5.171  -2.615  -0.373  0.00  0.00     0.067 H 
ATOM     24  H13 <0> d          -4.804  -3.580   1.076  0.00  0.00     0.067 H 
ENDBRANCH  20  21
ENDBRANCH  18  20
ENDBRANCH   1  18
TORSDOF 7
