REMARK  2 active torsions:
REMARK  status: ('A' for Active; 'I' for Inactive)
REMARK    1  A    between atoms: C1_1  and  C2_2 
REMARK    2  A    between atoms: C5_6  and  C7_9 
ROOT
ATOM      1  C2  <0> d           0.002  -0.004   0.002  0.00  0.00    -0.057 C 
ATOM      2  H1  <0> d          -1.017  -0.391  -0.003  0.00  0.00     0.039 H 
ATOM      3  C3  <0> d           0.767  -0.515  -1.236  0.00  0.00    -0.062 C 
ATOM      4  C4  <0> d           1.528  -1.763  -0.723  0.00  0.00    -0.062 C 
ATOM      5  C5  <0> d           1.959  -1.339   0.703  0.00  0.00    -0.057 C 
ATOM      6  H2  <0> d           2.853  -0.716   0.662  0.00  0.00     0.039 H 
ATOM      7  C6  <0> d           0.759  -0.528   1.235  0.00  0.00    -0.059 C 
ATOM      8  H6  <0> d           0.071  -0.792  -2.028  0.00  0.00     0.033 H 
ATOM      9  H7  <0> d           1.469   0.240  -1.590  0.00  0.00     0.033 H 
ATOM     10  H8  <0> d           0.868  -2.630  -0.686  0.00  0.00     0.033 H 
ATOM     11  H9  <0> d           2.400  -1.967  -1.346  0.00  0.00     0.033 H 
ATOM     12  H10 <0> d           1.111   0.308   1.840  0.00  0.00     0.034 H 
ATOM     13  H11 <0> d           0.107  -1.169   1.828  0.00  0.00     0.034 H 
ENDROOT
BRANCH   1  14
ATOM     14  C1  <0> d          -0.019   1.526   0.010  0.00  0.00    -0.073 C 
ATOM     15  H3  <0> d           1.004   1.903   0.003  0.00  0.00     0.028 H 
ATOM     16  H4  <0> d          -0.546   1.887  -0.873  0.00  0.00     0.028 H 
ATOM     17  H5  <0> d          -0.529   1.877   0.907  0.00  0.00     0.028 H 
ENDBRANCH   1  14
BRANCH   5  18
ATOM     18  C7  <0> d           2.206  -2.571   1.576  0.00  0.00    -0.073 C 
ATOM     19  H12 <0> d           3.013  -3.164   1.147  0.00  0.00     0.028 H 
ATOM     20  H13 <0> d           2.483  -2.253   2.582  0.00  0.00     0.028 H 
ATOM     21  H14 <0> d           1.298  -3.171   1.622  0.00  0.00     0.028 H 
ENDBRANCH   5  18
TORSDOF 2
