REMARK  2 active torsions:
REMARK  status: ('A' for Active; 'I' for Inactive)
REMARK    1  A    between atoms: C1_1  and  O1_2 
REMARK    2  A    between atoms: O1_2  and  C2_3 
ROOT
ATOM      1  C2  <0> d           1.185   2.058   0.002  0.00  0.00     0.068 A 
ATOM      2  C3  <0> d           2.361   1.322  -0.008  0.00  0.00    -0.050 A 
ATOM      3  C4  <0> d           3.580   1.966  -0.020  0.00  0.00    -0.072 A 
ATOM      4  C5  <0> d           3.642   3.355  -0.014  0.00  0.00    -0.034 A 
ATOM      5  C6  <0> d           2.467   4.085   0.001  0.00  0.00    -0.046 A 
ATOM      6  C7  <0> d           1.243   3.444   0.009  0.00  0.00    -0.044 A 
ATOM      7  C8  <0> d           3.257   5.369  -0.001  0.00  0.00    -0.021 A 
ATOM      8  C9  <0> d           4.556   4.563  -0.017  0.00  0.00     0.060 A 
ATOM      9  H1  <0> d           5.155   4.670   0.887  0.00  0.00     0.070 H 
ATOM     10  C10 <0> d           5.340   4.717  -1.252  0.00  0.00     0.069 C 
ATOM     11  N1  <0> d           5.946   4.836  -2.206  0.00  0.00    -0.197 NA
ATOM     12  H5  <0> d           2.321   0.243  -0.009  0.00  0.00     0.087 H 
ATOM     13  H6  <0> d           4.492   1.388  -0.032  0.00  0.00     0.084 H 
ATOM     14  H7  <0> d           0.331   4.022   0.020  0.00  0.00     0.088 H 
ATOM     15  H8  <0> d           3.109   5.963  -0.903  0.00  0.00     0.042 H 
ATOM     16  H9  <0> d           3.126   5.954   0.910  0.00  0.00     0.042 H 
ENDROOT
BRANCH   1  17
ATOM     17  O1  <0> d          -0.017   1.425   0.010  0.00  0.00    -0.356 OA
BRANCH  17  18
ATOM     18  C1  <0> d           0.002  -0.004   0.002  0.00  0.00     0.010 C 
ATOM     19  H2  <0> d           0.512  -0.356  -0.895  0.00  0.00     0.066 H 
ATOM     20  H3  <0> d           0.529  -0.365   0.885  0.00  0.00     0.066 H 
ATOM     21  H4  <0> d          -1.020  -0.381   0.010  0.00  0.00     0.066 H 
ENDBRANCH  17  18
ENDBRANCH   1  17
TORSDOF 2
