REMARK  3 active torsions:
REMARK  status: ('A' for Active; 'I' for Inactive)
REMARK    1  A    between atoms: C1_1  and  C2_2 
REMARK    2  A    between atoms: C3_4  and  C7_10 
REMARK    3  A    between atoms: C4_5  and  C6_7 
ROOT
ATOM      1  C2  <0> d           0.002  -0.004   0.002  0.00  0.00     0.013 A 
ATOM      2  N1  <0> d           0.008  -0.772  -1.039  0.00  0.00    -0.262 NA
ATOM      3  C3  <0> d           0.027  -2.078  -0.749  0.00  0.00     0.044 A 
ATOM      4  C4  <0> d           0.036  -2.301   0.589  0.00  0.00     0.048 A 
ATOM      5  C5  <0> d           0.026  -0.917   1.212  0.00  0.00     0.004 A 
ATOM      6  H4  <0> d           0.927  -0.751   1.804  0.00  0.00     0.049 H 
ATOM      7  H5  <0> d          -0.868  -0.776   1.821  0.00  0.00     0.049 H 
ENDROOT
BRANCH   1   8
ATOM      8  C1  <0> d          -0.018   1.503   0.010  0.00  0.00    -0.039 C 
ATOM      9  H1  <0> d           1.004   1.880   0.003  0.00  0.00     0.035 H 
ATOM     10  H2  <0> d          -0.545   1.864  -0.873  0.00  0.00     0.035 H 
ATOM     11  H3  <0> d          -0.529   1.854   0.907  0.00  0.00     0.035 H 
ENDBRANCH   1   8
BRANCH   4  12
ATOM     12  C6  <0> d           0.055  -3.547   1.255  0.00  0.00     0.207 C 
ATOM     13  O1  <0> d           0.067  -4.588   0.608  0.00  0.00    -0.644 OA
ATOM     14  O2  <0> d           0.060  -3.587   2.479  0.00  0.00    -0.644 OA
ENDBRANCH   4  12
BRANCH   3  15
ATOM     15  C7  <0> d           0.037  -3.171  -1.786  0.00  0.00    -0.035 C 
ATOM     16  H6  <0> d           0.028  -2.728  -2.782  0.00  0.00     0.035 H 
ATOM     17  H7  <0> d           0.936  -3.777  -1.667  0.00  0.00     0.035 H 
ATOM     18  H8  <0> d          -0.844  -3.800  -1.659  0.00  0.00     0.035 H 
ENDBRANCH   3  15
TORSDOF 3
