REMARK  0 active torsions:
REMARK  status: ('A' for Active; 'I' for Inactive)
ROOT
ATOM      1  C1  <0> d          -0.019   1.535   0.011  0.00  0.00    -0.063 C 
ATOM      2  C2  <0> d           1.519   1.482  -0.004  0.00  0.00    -0.055 C 
ATOM      3  C3  <0> d           1.382   0.102  -0.657  0.00  0.00    -0.002 A 
ATOM      4  C4  <0> d           0.002  -0.004   0.002  0.00  0.00    -0.055 C 
ATOM      5  C5  <0> d           1.804  -0.335  -2.055  0.00  0.00    -0.022 A 
ATOM      6  C6  <0> d           2.442  -0.982  -0.823  0.00  0.00     0.121 A 
ATOM      7 Cl1  <0> d           4.148  -0.542  -0.441  0.00  0.00    -0.101 Cl
ATOM      8 Cl2  <0> d           1.968  -2.677  -0.432  0.00  0.00    -0.101 Cl
ATOM      9  H1  <0> d          -0.432   1.960   0.925  0.00  0.00     0.033 H 
ATOM     10  H2  <0> d          -0.449   1.970  -0.891  0.00  0.00     0.033 H 
ATOM     11  H3  <0> d           1.976   2.228  -0.654  0.00  0.00     0.034 H 
ATOM     12  H4  <0> d           1.965   1.453   0.990  0.00  0.00     0.034 H 
ATOM     13  H5  <0> d           0.026  -0.447   0.998  0.00  0.00     0.034 H 
ATOM     14  H6  <0> d          -0.757  -0.448  -0.642  0.00  0.00     0.034 H 
ATOM     15  H7  <0> d           1.098  -0.935  -2.630  0.00  0.00     0.038 H 
ATOM     16  H8  <0> d           2.415   0.355  -2.635  0.00  0.00     0.038 H 
ENDROOT
TORSDOF 0
