REMARK  4 active torsions:
REMARK  status: ('A' for Active; 'I' for Inactive)
REMARK    1  A    between atoms: C1_1  and  C2_2 
REMARK    2  A    between atoms: C2_2  and  C3_3 
REMARK    3  A    between atoms: C2_2  and  C4_4 
REMARK    4  A    between atoms: C4_4  and  C5_6 
ROOT
ATOM      1  C4  <0> d           0.731  -0.503   1.223  0.00  0.00     0.163 C 
ATOM      2  O1  <0> d           1.924  -0.688   1.181  0.00  0.00    -0.292 OA
ENDROOT
BRANCH   1   3
ATOM      3  C2  <0> d           0.002  -0.004   0.002  0.00  0.00     0.002 C 
ATOM      4  H4  <0> d          -1.020  -0.381   0.010  0.00  0.00     0.051 H 
BRANCH   3   5
ATOM      5  C1  <0> d          -0.019   1.526   0.010  0.00  0.00    -0.066 C 
ATOM      6  H1  <0> d           1.004   1.903   0.003  0.00  0.00     0.028 H 
ATOM      7  H2  <0> d          -0.546   1.887  -0.873  0.00  0.00     0.028 H 
ATOM      8  H3  <0> d          -0.529   1.877   0.907  0.00  0.00     0.028 H 
ENDBRANCH   3   5
BRANCH   3   9
ATOM      9  C3  <0> d           0.718  -0.497  -1.257  0.00  0.00    -0.066 C 
ATOM     10  H5  <0> d           1.741  -0.120  -1.264  0.00  0.00     0.028 H 
ATOM     11  H6  <0> d           0.733  -1.587  -1.263  0.00  0.00     0.028 H 
ATOM     12  H7  <0> d           0.191  -0.136  -2.140  0.00  0.00     0.028 H 
ENDBRANCH   3   9
ENDBRANCH   1   3
BRANCH   1  13
ATOM     13  C5  <0> d          -0.013  -0.766   2.470  0.00  0.00     0.013 A 
ATOM     14  C9  <0> d           0.645  -1.230   3.616  0.00  0.00    -0.053 A 
ATOM     15  C8  <0> d          -0.090  -1.457   4.763  0.00  0.00     0.003 A 
ATOM     16  H11 <0> d           1.711  -1.404   3.605  0.00  0.00     0.087 H 
ATOM     17  N1  <0> d          -1.393  -1.254   4.785  0.00  0.00    -0.273 NA
ATOM     18  H10 <0> d           0.408  -1.810   5.654  0.00  0.00     0.114 H 
ATOM     19  C7  <0> d          -2.052  -0.823   3.728  0.00  0.00     0.003 A 
ATOM     20  C6  <0> d          -1.397  -0.564   2.539  0.00  0.00    -0.053 A 
ATOM     21  H9  <0> d          -3.119  -0.670   3.791  0.00  0.00     0.114 H 
ATOM     22  H8  <0> d          -1.943  -0.211   1.677  0.00  0.00     0.087 H 
ENDBRANCH   1  13
TORSDOF 4
