REMARK  0 active torsions:
REMARK  status: ('A' for Active; 'I' for Inactive)
ROOT
ATOM      1  C1  <0> d          -1.220   1.750   0.017  0.00  0.00    -0.080 A 
ATOM      2  C2  <0> d          -0.013   1.076   0.008  0.00  0.00    -0.080 A 
ATOM      3  C3  <0> d           1.175   1.782   0.000  0.00  0.00    -0.047 A 
ATOM      4  C4  <0> d           1.159   3.170   0.005  0.00  0.00     0.112 A 
ATOM      5  C5  <0> d          -0.053   3.848   0.015  0.00  0.00     0.103 A 
ATOM      6  C6  <0> d          -1.242   3.131   0.027  0.00  0.00    -0.048 A 
ATOM      7  O1  <0> d          -0.104   5.208   0.008  0.00  0.00    -0.339 OA
ATOM      8  C7  <0> d           1.088   5.902   0.397  0.00  0.00     0.106 C 
ATOM      9  C8  <0> d           2.260   5.172  -0.230  0.00  0.00     0.288 C 
ATOM     10  O2  <0> d           3.077   5.748  -0.907  0.00  0.00    -0.262 OA
ATOM     11  O3  <0> d           2.343   3.845   0.007  0.00  0.00    -0.274 OA
ATOM     12  H1  <0> d          -2.147   1.196   0.021  0.00  0.00     0.083 H 
ATOM     13  H2  <0> d           0.002  -0.004   0.002  0.00  0.00     0.083 H 
ATOM     14  H3  <0> d           2.116   1.254  -0.010  0.00  0.00     0.087 H 
ATOM     15  H4  <0> d          -2.187   3.655   0.039  0.00  0.00     0.087 H 
ATOM     16  H5  <0> d           1.184   5.895   1.483  0.00  0.00     0.090 H 
ATOM     17  H6  <0> d           1.054   6.930   0.035  0.00  0.00     0.090 H 
ENDROOT
TORSDOF 0
