REMARK  3 active torsions:
REMARK  status: ('A' for Active; 'I' for Inactive)
REMARK    1  A    between atoms: C1_1  and  C2_2 
REMARK    2  A    between atoms: C4_4  and  C8_9 
REMARK    3  A    between atoms: C8_9  and  C9_11 
ROOT
ATOM      1  C2  <0> d          -3.700   1.892   0.030  0.00  0.00    -0.022 A 
ATOM      2  C3  <0> d          -2.501   1.213   0.021  0.00  0.00    -0.061 A 
ATOM      3  C4  <0> d          -1.297   1.926   0.019  0.00  0.00     0.010 A 
ATOM      4  C5  <0> d          -1.320   3.326   0.032  0.00  0.00    -0.067 A 
ATOM      5  C6  <0> d          -2.525   3.992   0.035  0.00  0.00    -0.044 A 
ATOM      6  C7  <0> d          -3.716   3.279   0.037  0.00  0.00     0.122 A 
ATOM      7  F1  <0> d          -4.894   3.938   0.046  0.00  0.00    -0.206 F 
ATOM      8  H4  <0> d          -2.491   0.133   0.015  0.00  0.00     0.085 H 
ATOM      9  H5  <0> d          -0.394   3.882   0.036  0.00  0.00     0.085 H 
ATOM     10  H6  <0> d          -2.544   5.072   0.041  0.00  0.00     0.088 H 
ENDROOT
BRANCH   3  11
ATOM     11  C8  <0> d          -0.014   1.208   0.009  0.00  0.00     0.155 C 
ATOM     12  O1  <0> d           0.002  -0.004   0.002  0.00  0.00    -0.293 OA
BRANCH  11  13
ATOM     13  C9  <0> d           1.280   1.980   0.001  0.00  0.00    -0.017 C 
ATOM     14  H7  <0> d           1.558   2.155  -0.944  0.00  0.00     0.038 H 
ATOM     15  H8  <0> d           1.142   2.928   0.521  0.00  0.00     0.038 H 
ATOM     16  H9  <0> d           2.053   1.398   0.504  0.00  0.00     0.038 H 
ENDBRANCH  11  13
ENDBRANCH   3  11
BRANCH   1  17
ATOM     17  C1  <0> d          -4.998   1.126   0.031  0.00  0.00    -0.048 C 
ATOM     18  H1  <0> d          -5.306   0.935   1.059  0.00  0.00     0.033 H 
ATOM     19  H2  <0> d          -5.766   1.710  -0.476  0.00  0.00     0.033 H 
ATOM     20  H3  <0> d          -4.861   0.178  -0.489  0.00  0.00     0.033 H 
ENDBRANCH   1  17
TORSDOF 3
