REMARK  3 active torsions:
REMARK  status: ('A' for Active; 'I' for Inactive)
REMARK    1  A    between atoms: C1_1  and  C2_2 
REMARK    2  A    between atoms: C5_5  and  N1_10 
REMARK    3  A    between atoms: C6_6  and  C8_8 
ROOT
ATOM      1  C8  <0> d           2.379   3.929   0.001  0.00  0.00    -0.075 C 
ATOM      2  C9  <0> d           3.383   4.538  -0.005  0.00  0.00    -0.149 C 
ATOM      3  H7  <0> d           4.323   5.108  -0.011  0.00  0.00     0.166 H 
ENDROOT
BRANCH   1   4
ATOM      4  C6  <0> d           1.154   3.187   0.008  0.00  0.00     0.043 A 
ATOM      5  C5  <0> d           1.180   1.785   0.000  0.00  0.00     0.044 A 
ATOM      6  C4  <0> d          -0.013   1.076   0.008  0.00  0.00    -0.056 A 
ATOM      7  C3  <0> d          -1.218   1.750   0.017  0.00  0.00    -0.075 A 
ATOM      8  H5  <0> d           0.002  -0.004   0.002  0.00  0.00     0.087 H 
ATOM      9  C2  <0> d          -1.247   3.134   0.031  0.00  0.00    -0.060 A 
ATOM     10  H4  <0> d          -2.144   1.193   0.019  0.00  0.00     0.084 H 
ATOM     11  C7  <0> d          -0.070   3.854   0.023  0.00  0.00    -0.057 A 
ATOM     12  H6  <0> d          -0.098   4.934   0.029  0.00  0.00     0.086 H 
BRANCH   5  13
ATOM     13  N1  <0> d           2.398   1.107  -0.015  0.00  0.00    -0.398 N 
ATOM     14  H8  <0> d           3.342   1.672  -0.021  0.00  0.00     0.156 HD
ATOM     15  H9  <0> d           2.415   0.007  -0.022  0.00  0.00     0.156 HD
ENDBRANCH   5  13
BRANCH   9  16
ATOM     16  C1  <0> d          -2.569   3.857   0.047  0.00  0.00    -0.051 C 
ATOM     17  H1  <0> d          -3.388   3.123   0.051  0.00  0.00     0.033 H 
ATOM     18  H2  <0> d          -2.650   4.492  -0.848  0.00  0.00     0.033 H 
ATOM     19  H3  <0> d          -2.634   4.483   0.949  0.00  0.00     0.033 H 
ENDBRANCH   9  16
ENDBRANCH   1   4
TORSDOF 3
