REMARK  1 active torsions:
REMARK  status: ('A' for Active; 'I' for Inactive)
REMARK    1  A    between atoms: C3_3  and  C6_7 
ROOT
ATOM      1  C1  <0> d           3.647   5.855  -0.003  0.00  0.00    -0.065 A 
ATOM      2  C2  <0> d           2.418   5.218   0.000  0.00  0.00    -0.067 A 
ATOM      3  C3  <0> d           2.397   3.820  -0.001  0.00  0.00     0.029 A 
ATOM      4  C4  <0> d           3.606   3.127  -0.015  0.00  0.00     0.015 A 
ATOM      5  N1  <0> d           4.751   3.778  -0.023  0.00  0.00    -0.272 NA
ATOM      6  C5  <0> d           4.803   5.096  -0.017  0.00  0.00     0.002 A 
ATOM      7  H1  <0> d           3.703   6.934   0.001  0.00  0.00     0.085 H 
ATOM      8  H2  <0> d           1.500   5.785   0.007  0.00  0.00     0.085 H 
ATOM      9  H3  <0> d           3.604   2.047  -0.021  0.00  0.00     0.116 H 
ATOM     10  H4  <0> d           5.763   5.591  -0.023  0.00  0.00     0.114 H 
ENDROOT
BRANCH   3  11
ATOM     11  C6  <0> d           1.108   3.086   0.008  0.00  0.00     0.160 A 
ATOM     12  N3  <0> d          -0.027   3.771   0.022  0.00  0.00    -0.241 NA
ATOM     13  C9  <0> d          -1.192   3.148   0.030  0.00  0.00     0.006 A 
ATOM     14  C8  <0> d          -1.218   1.761   0.017  0.00  0.00    -0.049 A 
ATOM     15  H7  <0> d          -2.114   3.712   0.042  0.00  0.00     0.114 H 
ATOM     16  C7  <0> d          -0.013   1.076   0.008  0.00  0.00     0.006 A 
ATOM     17  H6  <0> d          -2.157   1.227   0.019  0.00  0.00     0.087 H 
ATOM     18  N2  <0> d           1.118   1.760   0.001  0.00  0.00    -0.241 NA
ATOM     19  H5  <0> d           0.002  -0.004   0.002  0.00  0.00     0.114 H 
ENDBRANCH   3  11
TORSDOF 1
