REMARK  3 active torsions:
REMARK  status: ('A' for Active; 'I' for Inactive)
REMARK    1  A    between atoms: C1_1  and  C2_2 
REMARK    2  A    between atoms: C3_3  and  N3_11 
REMARK    3  A    between atoms: C4_4  and  N2_10 
ROOT
ATOM      1  C2  <0> d           0.002  -0.004   0.002  0.00  0.00    -0.012 A 
ATOM      2  C3  <0> d          -1.157  -0.680   0.004  0.00  0.00     0.157 A 
ATOM      3  C4  <0> d          -1.081  -2.194  -0.005  0.00  0.00     0.255 A 
ATOM      4  H1  <0> d          -1.605  -2.563   0.877  0.00  0.00     0.113 H 
ATOM      5  C5  <0> d           0.307  -2.804  -0.015  0.00  0.00     0.282 A 
ATOM      6  O1  <0> d           0.458  -4.009  -0.022  0.00  0.00    -0.268 OA
ATOM      7  N1  <0> d           1.361  -1.979  -0.015  0.00  0.00    -0.224 NA
ATOM      8  C6  <0> d           1.237  -0.680  -0.013  0.00  0.00     0.013 A 
ATOM      9  H5  <0> d           2.139  -0.085  -0.019  0.00  0.00     0.115 H 
ENDROOT
BRANCH   1  10
ATOM     10  C1  <0> d          -0.018   1.503   0.010  0.00  0.00    -0.048 C 
ATOM     11  H2  <0> d           1.004   1.880   0.003  0.00  0.00     0.033 H 
ATOM     12  H3  <0> d          -0.545   1.864  -0.873  0.00  0.00     0.033 H 
ATOM     13  H4  <0> d          -0.529   1.854   0.907  0.00  0.00     0.033 H 
ENDBRANCH   1  10
BRANCH   2  14
ATOM     14  N3  <0> d          -2.386  -0.014   0.014  0.00  0.00    -0.050 N 
ATOM     15  H8  <0> d          -2.229   0.983   0.019  0.00  0.00     0.280 HD
ATOM     16  H9  <0> d          -2.913  -0.268  -0.809  0.00  0.00     0.280 HD
ATOM     17  H10 <0> d          -2.905  -0.277   0.839  0.00  0.00     0.280 HD
ENDBRANCH   2  14
BRANCH   3  18
ATOM     18  N2  <0> d          -1.798  -2.679  -1.192  0.00  0.00     0.098 N 
ATOM     19  H6  <0> d          -1.775  -3.686  -1.242  0.00  0.00     0.314 HD
ATOM     20  H7  <0> d          -2.747  -2.338  -1.204  0.00  0.00     0.314 HD
ENDBRANCH   3  18
TORSDOF 3
