REMARK  1 active torsions:
REMARK  status: ('A' for Active; 'I' for Inactive)
REMARK    1  A    between atoms: C5_7  and  O2_9 
ROOT
ATOM      1  C1  <0> d           1.150   3.089  -0.005  0.00  0.00    -0.026 C 
ATOM      2  C2  <0> d           2.539   3.705   0.168  0.00  0.00    -0.003 C 
ATOM      3  N1  <0> d           3.475   3.129  -0.789  0.00  0.00    -0.361 N 
ATOM      4  C3  <0> d           3.280   1.973  -1.423  0.00  0.00     0.220 C 
ATOM      5  O1  <0> d           4.149   1.572  -2.167  0.00  0.00    -0.274 OA
ATOM      6  C4  <0> d           2.040   1.140  -1.266  0.00  0.00     0.033 C 
ATOM      7  C5  <0> d           1.286   1.562  -0.002  0.00  0.00     0.045 C 
ATOM      8  H1  <0> d           1.843   1.245   0.880  0.00  0.00     0.083 H 
ATOM      9  H2  <0> d           0.721   3.416  -0.952  0.00  0.00     0.039 H 
ATOM     10  H3  <0> d           0.506   3.400   0.818  0.00  0.00     0.039 H 
ATOM     11  H4  <0> d           2.894   3.513   1.180  0.00  0.00     0.064 H 
ATOM     12  H5  <0> d           2.475   4.781   0.006  0.00  0.00     0.064 H 
ATOM     13  H6  <0> d           4.293   3.617  -0.975  0.00  0.00     0.162 HD
ATOM     14  H7  <0> d           2.317   0.089  -1.188  0.00  0.00     0.051 H 
ATOM     15  H8  <0> d           1.397   1.281  -2.135  0.00  0.00     0.051 H 
ENDROOT
BRANCH   7  16
ATOM     16  O2  <0> d          -0.011   0.963   0.007  0.00  0.00    -0.395 OA
ATOM     17  H9  <0> d           0.002  -0.004   0.002  0.00  0.00     0.210 HD
ENDBRANCH   7  16
TORSDOF 1
