REMARK  3 active torsions:
REMARK  status: ('A' for Active; 'I' for Inactive)
REMARK    1  A    between atoms: C1_1  and  S1_2 
REMARK    2  A    between atoms: S1_2  and  C2_3 
REMARK    3  A    between atoms: C3_5  and  N3_8 
ROOT
ATOM      1  C2  <0> d          -2.480   0.986   1.367  0.00  0.00     0.218 A 
ATOM      2  N1  <0> d          -3.487   1.137   2.251  0.00  0.00    -0.179 NA
ATOM      3  C3  <0> d          -4.503   0.460   1.748  0.00  0.00     0.267 A 
ATOM      4  O1  <0> d          -4.079  -0.079   0.596  0.00  0.00    -0.172 OA
ATOM      5  N2  <0> d          -2.924   0.232   0.395  0.00  0.00    -0.097 NA
ENDROOT
BRANCH   1   6
ATOM      6  S1  <0> d          -0.862   1.671   1.500  0.00  0.00    -0.092 SA
BRANCH   6   7
ATOM      7  C1  <0> d          -0.013   1.086   0.008  0.00  0.00    -0.027 C 
ATOM      8  H1  <0> d           1.019   1.466   0.000  0.00  0.00     0.042 H 
ATOM      9  H2  <0> d          -0.545   1.450  -0.883  0.00  0.00     0.042 H 
ATOM     10  H3  <0> d           0.002  -0.014   0.002  0.00  0.00     0.042 H 
ENDBRANCH   6   7
ENDBRANCH   1   6
BRANCH   3  11
ATOM     11  N3  <0> d          -5.753   0.328   2.302  0.00  0.00    -0.362 N 
ATOM     12  H4  <0> d          -6.522  -0.266   1.787  0.00  0.00     0.159 HD
ATOM     13  H5  <0> d          -5.984   0.816   3.260  0.00  0.00     0.159 HD
ENDBRANCH   3  11
TORSDOF 3
