REMARK  5 active torsions:
REMARK  status: ('A' for Active; 'I' for Inactive)
REMARK    1  A    between atoms: C1_1  and  C2_2 
REMARK    2  A    between atoms: C2_2  and  O1_3 
REMARK    3  A    between atoms: O1_3  and  C3_4 
REMARK    4  A    between atoms: C3_4  and  N1_9 
REMARK    5  A    between atoms: C4_5  and  C5_6 
ROOT
ATOM      1  C3  <0> d           0.049   1.207  -0.035  0.00  0.00     0.142 C 
ATOM      2  C4  <0> d          -0.184  -0.135   0.023  0.00  0.00     0.039 C 
ATOM      3  H6  <0> d          -1.210  -0.510   0.153  0.00  0.00     0.100 H 
ENDROOT
BRANCH   1   4
ATOM      4  O1  <0> d          -0.987   2.071  -0.053  0.00  0.00    -0.336 OA
BRANCH   4   5
ATOM      5  C2  <0> d          -0.669   3.463  -0.114  0.00  0.00     0.024 C 
ATOM      6  H4  <0> d          -0.097   3.669  -1.031  0.00  0.00     0.074 H 
ATOM      7  H5  <0> d          -0.067   3.741   0.763  0.00  0.00     0.074 H 
BRANCH   5   8
ATOM      8  C1  <0> d          -1.962   4.281  -0.126  0.00  0.00    -0.056 C 
ATOM      9  H1  <0> d          -1.718   5.353  -0.173  0.00  0.00     0.030 H 
ATOM     10  H2  <0> d          -2.534   4.076   0.791  0.00  0.00     0.030 H 
ATOM     11  H3  <0> d          -2.564   4.003  -1.004  0.00  0.00     0.030 H 
ENDBRANCH   5   8
ENDBRANCH   4   5
ENDBRANCH   1   4
BRANCH   1  12
ATOM     12  N1  <0> d           1.334   1.677  -0.081  0.00  0.00    -0.380 N 
ATOM     13  H7  <0> d           2.178   0.973  -0.067  0.00  0.00     0.158 HD
ATOM     14  H8  <0> d           1.522   2.760  -0.133  0.00  0.00     0.158 HD
ENDBRANCH   1  12
BRANCH   2  15
ATOM     15  C5  <0> d           0.884  -1.037  -0.083  0.00  0.00     0.202 C 
ATOM     16  O2  <0> d           2.030  -0.624  -0.114  0.00  0.00    -0.644 OA
ATOM     17  O3  <0> d           0.643  -2.365  -0.151  0.00  0.00    -0.644 OA
ENDBRANCH   2  15
TORSDOF 5
