REMARK  4 active torsions:
REMARK  status: ('A' for Active; 'I' for Inactive)
REMARK    1  A    between atoms: C1_1  and  C2_2 
REMARK    2  A    between atoms: C2_2  and  C3_3 
REMARK    3  A    between atoms: C3_3  and  C4_4 
REMARK    4  A    between atoms: C5_5  and  O1_10 
ROOT
ATOM      1  C4  <0> d           1.224  -0.661  -0.013  0.00  0.00     0.067 A 
ATOM      2  C5  <0> d           0.002  -0.004   0.002  0.00  0.00     0.090 A 
ATOM      3  C6  <0> d          -0.017   1.387   0.010  0.00  0.00    -0.048 A 
ATOM      4  C7  <0> d           1.193   2.062   0.002  0.00  0.00    -0.063 A 
ATOM      5  C8  <0> d           2.370   1.337  -0.013  0.00  0.00     0.003 A 
ATOM      6  N1  <0> d           2.353   0.019  -0.020  0.00  0.00    -0.263 NA
ATOM      7  H8  <0> d          -0.952   1.927   0.017  0.00  0.00     0.087 H 
ATOM      8  H9  <0> d           1.217   3.142   0.007  0.00  0.00     0.085 H 
ATOM      9  H10 <0> d           3.316   1.858  -0.020  0.00  0.00     0.114 H 
ENDROOT
BRANCH   1  10
ATOM     10  C3  <0> d           1.260  -2.168  -0.021  0.00  0.00    -0.022 C 
ATOM     11  H6  <0> d           2.164  -2.512   0.482  0.00  0.00     0.042 H 
ATOM     12  H7  <0> d           0.385  -2.555   0.499  0.00  0.00     0.042 H 
BRANCH  10  13
ATOM     13  C2  <0> d           1.259  -2.670  -1.466  0.00  0.00    -0.063 C 
ATOM     14  H4  <0> d           0.355  -2.326  -1.970  0.00  0.00     0.033 H 
ATOM     15  H5  <0> d           2.135  -2.283  -1.987  0.00  0.00     0.033 H 
BRANCH  13  16
ATOM     16  C1  <0> d           1.296  -4.200  -1.474  0.00  0.00    -0.076 C 
ATOM     17  H1  <0> d           2.199  -4.544  -0.971  0.00  0.00     0.027 H 
ATOM     18  H2  <0> d           0.420  -4.587  -0.954  0.00  0.00     0.027 H 
ATOM     19  H3  <0> d           1.294  -4.558  -2.504  0.00  0.00     0.027 H 
ENDBRANCH  13  16
ENDBRANCH  10  13
ENDBRANCH   1  10
BRANCH   2  20
ATOM     20  O1  <0> d          -1.160  -0.709   0.010  0.00  0.00    -0.359 OA
ATOM     21  H11 <0> d          -1.505  -0.908  -0.871  0.00  0.00     0.217 HD
ENDBRANCH   2  20
TORSDOF 4
