REMARK  3 active torsions:
REMARK  status: ('A' for Active; 'I' for Inactive)
REMARK    1  A    between atoms: C1_1  and  C2_2 
REMARK    2  A    between atoms: C5_6  and  N3_8 
REMARK    3  A    between atoms: N3_8  and  C6_9 
ROOT
ATOM      1  C2  <0> d           0.002  -0.004   0.002  0.00  0.00     0.124 A 
ATOM      2  N1  <0> d           0.005  -0.638  -1.153  0.00  0.00    -0.246 NA
ATOM      3  C3  <0> d           0.023  -1.963  -1.205  0.00  0.00     0.008 A 
ATOM      4  C4  <0> d           0.039  -2.683  -0.027  0.00  0.00    -0.022 A 
ATOM      5  C5  <0> d           0.035  -1.980   1.180  0.00  0.00     0.126 A 
ATOM      6  N2  <0> d           0.022  -0.651   1.150  0.00  0.00    -0.217 NA
ATOM      7  H4  <0> d           0.025  -2.472  -2.157  0.00  0.00     0.115 H 
ATOM      8  H5  <0> d           0.054  -3.763  -0.038  0.00  0.00     0.091 H 
ENDROOT
BRANCH   5   9
ATOM      9  N3  <0> d           0.050  -2.657   2.389  0.00  0.00    -0.379 N 
ATOM     10  H6  <0> d           0.048  -2.161   3.222  0.00  0.00     0.160 HD
BRANCH   9  11
ATOM     11  C6  <0> d           0.070  -4.122   2.408  0.00  0.00    -0.020 C 
ATOM     12  H7  <0> d          -0.817  -4.504   1.903  0.00  0.00     0.056 H 
ATOM     13  H8  <0> d           0.963  -4.479   1.895  0.00  0.00     0.056 H 
ATOM     14  H9  <0> d           0.080  -4.471   3.440  0.00  0.00     0.056 H 
ENDBRANCH   9  11
ENDBRANCH   5   9
BRANCH   1  15
ATOM     15  C1  <0> d          -0.018   1.503   0.010  0.00  0.00    -0.019 C 
ATOM     16  H1  <0> d           1.004   1.880   0.003  0.00  0.00     0.037 H 
ATOM     17  H2  <0> d          -0.545   1.864  -0.873  0.00  0.00     0.037 H 
ATOM     18  H3  <0> d          -0.529   1.854   0.907  0.00  0.00     0.037 H 
ENDBRANCH   1  15
TORSDOF 3
