REMARK  1 active torsions:
REMARK  status: ('A' for Active; 'I' for Inactive)
REMARK    1  A    between atoms: C5_7  and  N3_11 
ROOT
ATOM      1  C1  <0> d          -4.725   3.630   0.809  0.00  0.00    -0.040 A 
ATOM      2  C2  <0> d          -4.731   3.638  -0.722  0.00  0.00    -0.040 A 
ATOM      3  C3  <0> d          -3.589   2.973   0.035  0.00  0.00     0.125 A 
ATOM      4  C4  <0> d          -3.559   1.462   0.027  0.00  0.00     0.254 A 
ATOM      5  O1  <0> d          -4.577   0.805   0.029  0.00  0.00    -0.271 OA
ATOM      6  N1  <0> d          -2.336   0.880   0.018  0.00  0.00    -0.157 N 
ATOM      7  C5  <0> d          -1.199   1.630   0.017  0.00  0.00     0.703 A 
ATOM      8  N2  <0> d          -1.156   2.944   0.029  0.00  0.00    -0.027 NA
ATOM      9  C6  <0> d          -2.262   3.694   0.033  0.00  0.00     0.278 A 
ATOM     10  O2  <0> d          -2.202   4.908   0.040  0.00  0.00    -0.269 OA
ATOM     11  H1  <0> d          -5.221   2.878   1.440  0.00  0.00     0.035 H 
ATOM     12  H2  <0> d          -4.320   4.432   1.444  0.00  0.00     0.035 H 
ATOM     13  H3  <0> d          -5.632   3.124  -1.088  0.00  0.00     0.035 H 
ATOM     14  H4  <0> d          -4.731   4.677  -1.084  0.00  0.00     0.035 H 
ATOM     15  H5  <0> d          -2.249  -0.216   0.012  0.00  0.00     0.187 HD
ENDROOT
BRANCH   7  16
ATOM     16  N3  <0> d          -0.011   0.966   0.007  0.00  0.00    -0.233 N 
ATOM     17  H6  <0> d           0.934   1.529   0.006  0.00  0.00     0.174 HD
ATOM     18  H7  <0> d           0.004  -0.134   0.001  0.00  0.00     0.174 HD
ENDBRANCH   7  16
TORSDOF 1
