REMARK  1 active torsions:
REMARK  status: ('A' for Active; 'I' for Inactive)
REMARK    1  A    between atoms: C1_1  and  C2_2 
ROOT
ATOM      1  C2  <0> d           1.266   3.126   0.007  0.00  0.00    -0.028 A 
ATOM      2  C3  <0> d           1.201   1.772   0.000  0.00  0.00    -0.072 A 
ATOM      3  C4  <0> d          -0.013   1.076   0.008  0.00  0.00    -0.043 A 
ATOM      4  C5  <0> d          -1.210   1.721   0.017  0.00  0.00     0.149 A 
ATOM      5  C6  <0> d          -1.220   3.175   0.031  0.00  0.00     0.156 A 
ATOM      6  C7  <0> d           0.083   3.887   0.022  0.00  0.00     0.126 A 
ATOM      7  N1  <0> d          -0.278   5.147   0.032  0.00  0.00    -0.102 NA
ATOM      8  O1  <0> d          -1.491   5.212   0.044  0.00  0.00    -0.106 OA
ATOM      9  N2  <0> d          -2.087   4.154   0.044  0.00  0.00    -0.100 NA
ATOM     10  F1  <0> d          -2.367   1.024   0.019  0.00  0.00    -0.203 F 
ATOM     11  H4  <0> d           2.122   1.209  -0.012  0.00  0.00     0.084 H 
ATOM     12  H5  <0> d           0.002  -0.004   0.002  0.00  0.00     0.088 H 
ENDROOT
BRANCH   1  13
ATOM     13  C1  <0> d           2.606   3.815  -0.002  0.00  0.00    -0.049 C 
ATOM     14  H1  <0> d           3.407   3.061  -0.013  0.00  0.00     0.033 H 
ATOM     15  H2  <0> d           2.704   4.439   0.899  0.00  0.00     0.033 H 
ATOM     16  H3  <0> d           2.687   4.449  -0.897  0.00  0.00     0.033 H 
ENDBRANCH   1  13
TORSDOF 1
