REMARK  3 active torsions:
REMARK  status: ('A' for Active; 'I' for Inactive)
REMARK    1  A    between atoms: C1_1  and  C2_2 
REMARK    2  A    between atoms: C2_2  and  C3_4 
REMARK    3  A    between atoms: C2_2  and  O1_9 
ROOT
ATOM      1  C3  <0> d           0.742  -0.511   1.242  0.00  0.00     0.074 A 
ATOM      2  C4  <0> d          -0.082  -1.230   2.312  0.00  0.00    -0.042 A 
ATOM      3  C5  <0> d           0.871  -2.025   1.417  0.00  0.00    -0.042 A 
ATOM      4  C6  <0> d           1.866   0.324   1.696  0.00  0.00     0.071 C 
ATOM      5  N1  <0> d           2.733   0.969   2.046  0.00  0.00    -0.196 NA
ATOM      6  H5  <0> d           0.208  -1.085   3.352  0.00  0.00     0.035 H 
ATOM      7  H6  <0> d          -1.151  -1.342   2.132  0.00  0.00     0.035 H 
ATOM      8  H7  <0> d           0.429  -2.660   0.650  0.00  0.00     0.035 H 
ATOM      9  H8  <0> d           1.788  -2.403   1.869  0.00  0.00     0.035 H 
ENDROOT
BRANCH   1  10
ATOM     10  C2  <0> d           0.002  -0.004   0.002  0.00  0.00     0.052 C 
ATOM     11  H1  <0> d           0.512  -0.356  -0.895  0.00  0.00     0.085 H 
BRANCH  10  12
ATOM     12  C1  <0> d          -0.019   1.526   0.010  0.00  0.00    -0.051 C 
ATOM     13  H2  <0> d           1.004   1.903   0.003  0.00  0.00     0.030 H 
ATOM     14  H3  <0> d          -0.546   1.887  -0.873  0.00  0.00     0.030 H 
ATOM     15  H4  <0> d          -0.529   1.877   0.907  0.00  0.00     0.030 H 
ENDBRANCH  10  12
BRANCH  10  16
ATOM     16  O1  <0> d          -1.339  -0.499   0.012  0.00  0.00    -0.394 OA
ATOM     17  H9  <0> d          -1.868  -0.216  -0.746  0.00  0.00     0.210 HD
ENDBRANCH  10  16
ENDBRANCH   1  10
TORSDOF 3
