REMARK  4 active torsions:
REMARK  status: ('A' for Active; 'I' for Inactive)
REMARK    1  A    between atoms: C1_1  and  C2_2 
REMARK    2  A    between atoms: C2_2  and  C3_3 
REMARK    3  A    between atoms: C2_2  and  C4_4 
REMARK    4  A    between atoms: C4_4  and  C5_5 
ROOT
ATOM      1  C2  <0> d           0.002  -0.004   0.002  0.00  0.00    -0.056 C 
ATOM      2  H4  <0> d           0.512  -0.356  -0.895  0.00  0.00     0.039 H 
ENDROOT
BRANCH   1   3
ATOM      3  C1  <0> d          -0.019   1.526   0.010  0.00  0.00    -0.073 C 
ATOM      4  H1  <0> d           1.004   1.903   0.003  0.00  0.00     0.028 H 
ATOM      5  H2  <0> d          -0.546   1.887  -0.873  0.00  0.00     0.028 H 
ATOM      6  H3  <0> d          -0.529   1.877   0.907  0.00  0.00     0.028 H 
ENDBRANCH   1   3
BRANCH   1   7
ATOM      7  C3  <0> d           0.742  -0.511   1.242  0.00  0.00    -0.073 C 
ATOM      8  H5  <0> d           0.232  -0.159   2.138  0.00  0.00     0.028 H 
ATOM      9  H6  <0> d           0.757  -1.601   1.236  0.00  0.00     0.028 H 
ATOM     10  H7  <0> d           1.765  -0.134   1.234  0.00  0.00     0.028 H 
ENDBRANCH   1   7
BRANCH   1  11
ATOM     11  C4  <0> d          -1.433  -0.534   0.013  0.00  0.00    -0.016 C 
ATOM     12  H8  <0> d          -1.916  -0.257   0.950  0.00  0.00     0.043 H 
ATOM     13  H9  <0> d          -1.986  -0.102  -0.821  0.00  0.00     0.043 H 
BRANCH  11  14
ATOM     14  C5  <0> d          -1.416  -2.035  -0.119  0.00  0.00     0.074 A 
ATOM     15  S1  <0> d          -1.456  -2.961  -1.524  0.00  0.00    -0.085 SA
ATOM     16  C7  <0> d          -1.400  -4.573  -0.756  0.00  0.00    -0.026 A 
ATOM     17  C6  <0> d          -1.362  -4.224   0.556  0.00  0.00     0.009 A 
ATOM     18  H11 <0> d          -1.400  -5.553  -1.209  0.00  0.00     0.097 H 
ATOM     19  N1  <0> d          -1.372  -2.935   0.831  0.00  0.00    -0.258 NA
ATOM     20  H10 <0> d          -1.325  -4.968   1.337  0.00  0.00     0.115 H 
ENDBRANCH  11  14
ENDBRANCH   1  11
TORSDOF 4
