REMARK  1 active torsions:
REMARK  status: ('A' for Active; 'I' for Inactive)
REMARK    1  A    between atoms: C1_1  and  C3_4 
ROOT
ATOM      1  C1  <0> d          -0.733   1.888   1.268  0.00  0.00     0.104 C 
ATOM      2  C2  <0> d          -0.021   1.401   2.461  0.00  0.00     0.068 C 
ATOM      3  N1  <0> d           0.528   1.024   3.381  0.00  0.00    -0.197 NA
ATOM      4  H1  <0> d          -0.748   2.978   1.274  0.00  0.00     0.068 H 
ATOM      5  H2  <0> d          -1.756   1.511   1.276  0.00  0.00     0.068 H 
ENDROOT
BRANCH   1   6
ATOM      6  C3  <0> d          -0.017   1.395   0.010  0.00  0.00     0.399 C 
ATOM      7  F1  <0> d           0.002  -0.004   0.002  0.00  0.00    -0.170 F 
ATOM      8  F2  <0> d           1.296   1.879  -0.000  0.00  0.00    -0.170 F 
ATOM      9  F3  <0> d          -0.694   1.858  -1.124  0.00  0.00    -0.170 F 
ENDBRANCH   1   6
TORSDOF 1
