REMARK  4 active torsions:
REMARK  status: ('A' for Active; 'I' for Inactive)
REMARK    1  A    between atoms: C1_1  and  C2_2 
REMARK    2  A    between atoms: C6_6  and  C8_8 
REMARK    3  A    between atoms: C8_8  and  C9_10 
REMARK    4  A    between atoms: C8_8  and  O1_11 
ROOT
ATOM      1  C2  <0> d          -4.468   1.361   0.796  0.00  0.00    -0.061 A 
ATOM      2  C3  <0> d          -4.737   0.101   1.298  0.00  0.00    -0.077 A 
ATOM      3  C4  <0> d          -3.708  -0.680   1.789  0.00  0.00    -0.082 A 
ATOM      4  C5  <0> d          -2.411  -0.202   1.779  0.00  0.00    -0.074 A 
ATOM      5  C6  <0> d          -2.143   1.058   1.278  0.00  0.00    -0.029 A 
ATOM      6  C7  <0> d          -3.172   1.841   0.791  0.00  0.00    -0.069 A 
ATOM      7  H5  <0> d          -5.750  -0.273   1.306  0.00  0.00     0.084 H 
ATOM      8  H6  <0> d          -3.917  -1.665   2.182  0.00  0.00     0.083 H 
ATOM      9  H7  <0> d          -1.607  -0.812   2.164  0.00  0.00     0.084 H 
ATOM     10  H8  <0> d          -2.963   2.827   0.403  0.00  0.00     0.085 H 
ENDROOT
BRANCH   5  11
ATOM     11  C8  <0> d          -0.729   1.579   1.267  0.00  0.00     0.057 C 
ATOM     12  H1  <0> d          -0.744   2.669   1.273  0.00  0.00     0.089 H 
BRANCH  11  13
ATOM     13  C9  <0> d          -0.013   1.086   0.008  0.00  0.00    -0.049 C 
ATOM     14  H9  <0> d           0.002  -0.004   0.002  0.00  0.00     0.031 H 
ATOM     15  H10 <0> d           1.010   1.463   0.000  0.00  0.00     0.031 H 
ATOM     16  H11 <0> d          -0.540   1.447  -0.875  0.00  0.00     0.031 H 
ENDBRANCH  11  13
BRANCH  11  17
ATOM     17  O1  <0> d          -0.038   1.106   2.425  0.00  0.00    -0.391 OA
ATOM     18  H12 <0> d           0.014   0.142   2.485  0.00  0.00     0.210 HD
ENDBRANCH  11  17
ENDBRANCH   5  11
BRANCH   1  19
ATOM     19  C1  <0> d          -5.590   2.213   0.259  0.00  0.00    -0.051 C 
ATOM     20  H2  <0> d          -6.001   2.821   1.065  0.00  0.00     0.033 H 
ATOM     21  H3  <0> d          -5.208   2.863  -0.528  0.00  0.00     0.033 H 
ATOM     22  H4  <0> d          -6.371   1.571  -0.147  0.00  0.00     0.033 H 
ENDBRANCH   1  19
TORSDOF 4
