REMARK  2 active torsions:
REMARK  status: ('A' for Active; 'I' for Inactive)
REMARK    1  A    between atoms: C1_1  and  C2_2 
REMARK    2  A    between atoms: C6_6  and  N1_8 
REMARK       I    between atoms: N1_8  and  C8_9 
REMARK       I    between atoms: C8_9  and  N2_11 
ROOT
ATOM      1  C2  <0> d          -1.201   1.748  -0.144  0.00  0.00    -0.060 A 
ATOM      2  C3  <0> d          -0.004   1.076   0.026  0.00  0.00    -0.077 A 
ATOM      3  C4  <0> d           1.172   1.784   0.191  0.00  0.00    -0.080 A 
ATOM      4  C5  <0> d           1.154   3.165   0.193  0.00  0.00    -0.057 A 
ATOM      5  C6  <0> d          -0.047   3.842   0.029  0.00  0.00     0.036 A 
ATOM      6  C7  <0> d          -1.227   3.128  -0.137  0.00  0.00    -0.051 A 
ATOM      7  H4  <0> d           0.013  -0.004   0.025  0.00  0.00     0.084 H 
ATOM      8  H5  <0> d           2.106   1.256   0.319  0.00  0.00     0.083 H 
ATOM      9  H6  <0> d           2.073   3.718   0.322  0.00  0.00     0.086 H 
ATOM     10  H7  <0> d          -2.163   3.652  -0.264  0.00  0.00     0.087 H 
ENDROOT
BRANCH   5  11
ATOM     11  N1  <0> d          -0.069   5.242   0.031  0.00  0.00    -0.309 N 
ATOM     12  C8  <0> d           0.975   5.933  -0.468  0.00  0.00     0.318 C 
ATOM     13  O1  <0> d           1.892   5.344  -1.007  0.00  0.00    -0.247 OA
ATOM     14  N2  <0> d           1.002   7.277  -0.369  0.00  0.00    -0.352 N 
ATOM     15  H9  <0> d           0.271   7.746   0.061  0.00  0.00     0.160 HD
ATOM     16  H10 <0> d           1.754   7.774  -0.728  0.00  0.00     0.160 HD
ATOM     17  H8  <0> d          -0.836   5.714   0.392  0.00  0.00     0.170 HD
ENDBRANCH   5  11
BRANCH   1  18
ATOM     18  C1  <0> d          -2.480   0.972  -0.330  0.00  0.00    -0.051 C 
ATOM     19  H1  <0> d          -2.934   0.781   0.643  0.00  0.00     0.033 H 
ATOM     20  H2  <0> d          -3.169   1.550  -0.946  0.00  0.00     0.033 H 
ATOM     21  H3  <0> d          -2.261   0.024  -0.821  0.00  0.00     0.033 H 
ENDBRANCH   1  18
TORSDOF 2
