REMARK  0 active torsions:
REMARK  status: ('A' for Active; 'I' for Inactive)
ROOT
ATOM      1  C1  <0> d          -0.016   1.341   0.009  0.00  0.00     0.027 A 
ATOM      2  C2  <0> d           1.258   1.766  -0.001  0.00  0.00     0.038 A 
ATOM      3  O1  <0> d           2.042   0.670  -0.014  0.00  0.00    -0.297 OA
ATOM      4  C3  <0> d           1.242  -0.405  -0.012  0.00  0.00     0.217 A 
ATOM      5  N1  <0> d           0.002  -0.004   0.002  0.00  0.00    -0.228 NA
ATOM      6 Br1  <0> d           1.818  -2.206  -0.028  0.00  0.00     0.000 Br
ATOM      7  H1  <0> d          -0.897   1.966   0.025  0.00  0.00     0.117 H 
ATOM      8  H2  <0> d           1.591   2.794   0.002  0.00  0.00     0.125 H 
ENDROOT
TORSDOF 0
