REMARK  8 active torsions:
REMARK  status: ('A' for Active; 'I' for Inactive)
REMARK    1  A    between atoms: C1_1  and  C2_2 
REMARK    2  A    between atoms: C2_2  and  C3_3 
REMARK    3  A    between atoms: C3_3  and  C4_4 
REMARK    4  A    between atoms: C4_4  and  C5_5 
REMARK    5  A    between atoms: C4_4  and  C8_8 
REMARK    6  A    between atoms: C4_4  and  O1_11 
REMARK    7  A    between atoms: C5_5  and  C6_6 
REMARK    8  A    between atoms: C8_8  and  C9_9 
ROOT
ATOM      1  C4  <0> d          -2.075   3.805  -1.205  0.00  0.00     0.064 C 
ENDROOT
BRANCH   1   2
ATOM      2  C3  <0> d          -2.012   5.326  -1.350  0.00  0.00    -0.036 C 
ATOM      3  H6  <0> d          -2.227   5.792  -0.389  0.00  0.00     0.037 H 
ATOM      4  H7  <0> d          -1.015   5.619  -1.680  0.00  0.00     0.037 H 
BRANCH   2   5
ATOM      5  C2  <0> d          -3.045   5.784  -2.382  0.00  0.00    -0.066 C 
ATOM      6  H4  <0> d          -2.830   5.318  -3.343  0.00  0.00     0.032 H 
ATOM      7  H5  <0> d          -4.042   5.491  -2.051  0.00  0.00     0.032 H 
BRANCH   5   8
ATOM      8  C1  <0> d          -2.982   7.306  -2.527  0.00  0.00    -0.076 C 
ATOM      9  H1  <0> d          -3.718   7.631  -3.262  0.00  0.00     0.027 H 
ATOM     10  H2  <0> d          -3.197   7.771  -1.565  0.00  0.00     0.027 H 
ATOM     11  H3  <0> d          -1.985   7.598  -2.857  0.00  0.00     0.027 H 
ENDBRANCH   5   8
ENDBRANCH   2   5
ENDBRANCH   1   2
BRANCH   1  12
ATOM     12  C5  <0> d          -1.131   3.359  -0.086  0.00  0.00    -0.022 C 
ATOM     13  H8  <0> d          -1.156   2.273  -0.001  0.00  0.00     0.043 H 
ATOM     14  H9  <0> d          -1.450   3.805   0.857  0.00  0.00     0.043 H 
BRANCH  12  15
ATOM     15  C6  <0> d           0.272   3.807  -0.405  0.00  0.00    -0.109 C 
ATOM     16  C7  <0> d           0.939   4.534   0.457  0.00  0.00    -0.125 C 
ATOM     17  H11 <0> d           1.944   4.855   0.229  0.00  0.00     0.066 H 
ATOM     18  H12 <0> d           0.481   4.817   1.394  0.00  0.00     0.066 H 
ATOM     19  H10 <0> d           0.728   3.528  -1.343  0.00  0.00     0.075 H 
ENDBRANCH  12  15
ENDBRANCH   1  12
BRANCH   1  20
ATOM     20  C8  <0> d          -3.506   3.384  -0.863  0.00  0.00    -0.022 C 
ATOM     21  H13 <0> d          -3.821   3.880   0.055  0.00  0.00     0.043 H 
ATOM     22  H14 <0> d          -4.173   3.668  -1.677  0.00  0.00     0.043 H 
BRANCH  20  23
ATOM     23  C9  <0> d          -3.558   1.890  -0.670  0.00  0.00    -0.109 C 
ATOM     24  C10 <0> d          -4.039   1.390   0.441  0.00  0.00    -0.125 C 
ATOM     25  H16 <0> d          -4.076   0.320   0.580  0.00  0.00     0.066 H 
ATOM     26  H17 <0> d          -4.399   2.048   1.219  0.00  0.00     0.066 H 
ATOM     27  H15 <0> d          -3.198   1.232  -1.447  0.00  0.00     0.075 H 
ENDBRANCH  20  23
ENDBRANCH   1  20
BRANCH   1  28
ATOM     28  O1  <0> d          -1.679   3.192  -2.434  0.00  0.00    -0.389 OA
ATOM     29  H18 <0> d          -0.781   3.415  -2.713  0.00  0.00     0.210 HD
ENDBRANCH   1  28
TORSDOF 8
