REMARK  2 active torsions:
REMARK  status: ('A' for Active; 'I' for Inactive)
REMARK    1  A    between atoms: C3_3  and  C7_9 
REMARK    2  A    between atoms: C7_9  and  O2_10 
ROOT
ATOM      1  C1  <0> d           2.829   4.010  -0.219  0.00  0.00    -0.058 C 
ATOM      2  C2  <0> d           1.398   3.479  -0.118  0.00  0.00    -0.059 C 
ATOM      3  C3  <0> d           1.418   1.954  -0.001  0.00  0.00    -0.027 C 
ATOM      4  H1  <0> d           1.958   1.528  -0.859  0.00  0.00     0.043 H 
ATOM      5  C4  <0> d           2.121   1.553   1.300  0.00  0.00    -0.004 C 
ATOM      6  C5  <0> d           3.489   2.198   1.327  0.00  0.00     0.127 C 
ATOM      7  O1  <0> d           4.479   1.542   1.545  0.00  0.00    -0.298 OA
ATOM      8  C6  <0> d           3.585   3.686   1.073  0.00  0.00    -0.010 C 
ATOM      9  H2  <0> d           2.807   5.100  -0.368  0.00  0.00     0.033 H 
ATOM     10  H3  <0> d           3.338   3.534  -1.071  0.00  0.00     0.033 H 
ATOM     11  H4  <0> d           0.911   3.906   0.771  0.00  0.00     0.033 H 
ATOM     12  H5  <0> d           0.836   3.767  -1.019  0.00  0.00     0.033 H 
ATOM     13  H6  <0> d           1.527   1.898   2.159  0.00  0.00     0.045 H 
ATOM     14  H7  <0> d           2.221   0.458   1.340  0.00  0.00     0.045 H 
ATOM     15  H8  <0> d           4.639   3.981   0.966  0.00  0.00     0.044 H 
ATOM     16  H9  <0> d           3.134   4.239   1.911  0.00  0.00     0.044 H 
ENDROOT
BRANCH   3  17
ATOM     17  C7  <0> d          -0.017   1.425   0.010  0.00  0.00     0.020 C 
ATOM     18  H10 <0> d          -0.532   1.780   0.915  0.00  0.00     0.074 H 
ATOM     19  H11 <0> d          -0.549   1.789  -0.881  0.00  0.00     0.074 H 
BRANCH  17  20
ATOM     20  O2  <0> d           0.002  -0.004   0.002  0.00  0.00    -0.400 OA
ATOM     21  H12 <0> d          -0.943  -0.567   0.008  0.00  0.00     0.209 HD
ENDBRANCH  17  20
ENDBRANCH   3  17
TORSDOF 2
