REMARK  4 active torsions:
REMARK  status: ('A' for Active; 'I' for Inactive)
REMARK    1  A    between atoms: C1_1  and  C2_2 
REMARK    2  A    between atoms: C2_2  and  C3_3 
REMARK    3  A    between atoms: C2_2  and  N1_4 
REMARK    4  A    between atoms: C4_5  and  N3_10 
ROOT
ATOM      1  N1  <0> d          -1.372  -0.511   0.012  0.00  0.00    -0.249 N 
ATOM      2  C4  <0> d          -1.940  -1.302  -0.934  0.00  0.00     0.141 A 
ATOM      3  C5  <0> d          -3.224  -1.546  -0.548  0.00  0.00     0.098 A 
ATOM      4  C6  <0> d          -3.438  -0.885   0.665  0.00  0.00     0.046 A 
ATOM      5  N2  <0> d          -2.333  -0.271   1.003  0.00  0.00    -0.181 NA
ATOM      6 Cl1  <0> d          -4.386  -2.506  -1.408  0.00  0.00    -0.079 Cl
ATOM      7  H8  <0> d          -4.359  -0.884   1.230  0.00  0.00     0.120 H 
ENDROOT
BRANCH   1   8
ATOM      8  C2  <0> d           0.002  -0.004   0.002  0.00  0.00     0.029 C 
ATOM      9  H4  <0> d           0.512  -0.356  -0.895  0.00  0.00     0.074 H 
BRANCH   8  10
ATOM     10  C1  <0> d          -0.019   1.526   0.010  0.00  0.00    -0.056 C 
ATOM     11  H1  <0> d           1.004   1.903   0.003  0.00  0.00     0.030 H 
ATOM     12  H2  <0> d          -0.546   1.887  -0.873  0.00  0.00     0.030 H 
ATOM     13  H3  <0> d          -0.529   1.877   0.907  0.00  0.00     0.030 H 
ENDBRANCH   8  10
BRANCH   8  14
ATOM     14  C3  <0> d           0.742  -0.511   1.242  0.00  0.00    -0.056 C 
ATOM     15  H5  <0> d           0.232  -0.159   2.138  0.00  0.00     0.030 H 
ATOM     16  H6  <0> d           0.757  -1.601   1.236  0.00  0.00     0.030 H 
ATOM     17  H7  <0> d           1.765  -0.134   1.234  0.00  0.00     0.030 H 
ENDBRANCH   8  14
ENDBRANCH   1   8
BRANCH   2  18
ATOM     18  N3  <0> d          -1.324  -1.777  -2.090  0.00  0.00    -0.383 N 
ATOM     19  H9  <0> d          -0.401  -1.546  -2.277  0.00  0.00     0.157 HD
ATOM     20  H10 <0> d          -1.818  -2.339  -2.707  0.00  0.00     0.157 HD
ENDBRANCH   2  18
TORSDOF 4
