REMARK  2 active torsions:
REMARK  status: ('A' for Active; 'I' for Inactive)
REMARK    1  A    between atoms: C3_3  and  O2_10 
REMARK    2  A    between atoms: C5_6  and  O1_9 
ROOT
ATOM      1  C1  <0> d          -0.037   1.099  -2.490  0.00  0.00    -0.060 C 
ATOM      2  C2  <0> d          -0.753   1.593  -1.232  0.00  0.00    -0.041 C 
ATOM      3  C3  <0> d          -0.013   1.086   0.008  0.00  0.00     0.038 C 
ATOM      4  H1  <0> d           0.002  -0.004   0.002  0.00  0.00     0.083 H 
ATOM      5  C4  <0> d           1.423   1.615  -0.003  0.00  0.00    -0.017 C 
ATOM      6  C5  <0> d           2.139   1.122  -1.262  0.00  0.00     0.038 C 
ATOM      7  H2  <0> d           2.154   0.032  -1.268  0.00  0.00     0.083 H 
ATOM      8  C6  <0> d           1.399   1.629  -2.501  0.00  0.00    -0.041 C 
ATOM      9  H3  <0> d          -0.564   1.460  -3.373  0.00  0.00     0.033 H 
ATOM     10  H4  <0> d          -0.022   0.009  -2.496  0.00  0.00     0.033 H 
ATOM     11  H5  <0> d          -1.775   1.215  -1.224  0.00  0.00     0.036 H 
ATOM     12  H6  <0> d          -0.767   2.683  -1.226  0.00  0.00     0.036 H 
ATOM     13  H7  <0> d           1.408   2.705   0.003  0.00  0.00     0.040 H 
ATOM     14  H8  <0> d           1.950   1.254   0.880  0.00  0.00     0.040 H 
ATOM     15  H9  <0> d           1.384   2.719  -2.495  0.00  0.00     0.036 H 
ATOM     16  H10 <0> d           1.909   1.277  -3.398  0.00  0.00     0.036 H 
ENDROOT
BRANCH   3  17
ATOM     17  O2  <0> d          -0.682   1.547   1.184  0.00  0.00    -0.395 OA
ATOM     18  H12 <0> d          -1.599   1.248   1.257  0.00  0.00     0.210 HD
ENDBRANCH   3  17
BRANCH   6  19
ATOM     19  O1  <0> d           3.479   1.617  -1.272  0.00  0.00    -0.395 OA
ATOM     20  H11 <0> d           3.994   1.343  -2.043  0.00  0.00     0.210 HD
ENDBRANCH   6  19
TORSDOF 2
