REMARK  5 active torsions:
REMARK  status: ('A' for Active; 'I' for Inactive)
REMARK    1  A    between atoms: C1_1  and  C2_2 
REMARK    2  A    between atoms: C3_4  and  O2_10 
REMARK    3  A    between atoms: C5_6  and  O1_8 
REMARK    4  A    between atoms: O1_8  and  C6_9 
REMARK    5  A    between atoms: O2_10  and  C7_11 
ROOT
ATOM      1  C2  <0> d          -0.381   5.024   0.588  0.00  0.00     0.127 A 
ATOM      2  N1  <0> d          -0.977   5.562   1.633  0.00  0.00    -0.210 NA
ATOM      3  C3  <0> d          -1.506   4.798   2.584  0.00  0.00     0.169 A 
ATOM      4  C4  <0> d          -1.429   3.415   2.461  0.00  0.00     0.019 A 
ATOM      5  C5  <0> d          -0.787   2.888   1.346  0.00  0.00     0.169 A 
ATOM      6  N2  <0> d          -0.283   3.719   0.438  0.00  0.00    -0.210 NA
ATOM      7  H4  <0> d          -1.853   2.768   3.213  0.00  0.00     0.097 H 
ENDROOT
BRANCH   3   8
ATOM      8  O2  <0> d          -2.118   5.359   3.656  0.00  0.00    -0.339 OA
BRANCH   8   9
ATOM      9  C7  <0> d          -2.160   6.787   3.704  0.00  0.00     0.012 C 
ATOM     10  H8  <0> d          -2.675   7.104   4.611  0.00  0.00     0.067 H 
ATOM     11  H9  <0> d          -1.143   7.180   3.707  0.00  0.00     0.067 H 
ATOM     12  H10 <0> d          -2.693   7.164   2.832  0.00  0.00     0.067 H 
ENDBRANCH   8   9
ENDBRANCH   3   8
BRANCH   1  13
ATOM     13  C1  <0> d           0.205   5.928  -0.466  0.00  0.00    -0.019 C 
ATOM     14  H1  <0> d          -0.548   6.137  -1.226  0.00  0.00     0.037 H 
ATOM     15  H2  <0> d           0.525   6.863  -0.005  0.00  0.00     0.037 H 
ATOM     16  H3  <0> d           1.062   5.439  -0.929  0.00  0.00     0.037 H 
ENDBRANCH   1  13
BRANCH   5  17
ATOM     17  O1  <0> d          -0.682   1.547   1.184  0.00  0.00    -0.339 OA
BRANCH  17  18
ATOM     18  C6  <0> d          -0.013   1.086   0.008  0.00  0.00     0.012 C 
ATOM     19  H5  <0> d           0.002  -0.004   0.002  0.00  0.00     0.067 H 
ATOM     20  H6  <0> d           1.010   1.463   0.000  0.00  0.00     0.067 H 
ATOM     21  H7  <0> d          -0.540   1.447  -0.875  0.00  0.00     0.067 H 
ENDBRANCH  17  18
ENDBRANCH   5  17
TORSDOF 5
