REMARK  3 active torsions:
REMARK  status: ('A' for Active; 'I' for Inactive)
REMARK    1  A    between atoms: C1_1  and  C2_2 
REMARK    2  A    between atoms: C2_2  and  C3_4 
REMARK    3  A    between atoms: C2_2  and  C6_7 
ROOT
ATOM      1  C2  <0> d           1.235   3.094   0.007  0.00  0.00     0.030 C 
ATOM      2  H1  <0> d           0.737   3.461   0.916  0.00  0.00     0.056 H 
ENDROOT
BRANCH   1   3
ATOM      3  C1  <0> d           0.522   3.639  -1.233  0.00  0.00    -0.063 C 
ATOM      4  H2  <0> d          -0.528   3.312  -1.224  0.00  0.00     0.028 H 
ATOM      5  H3  <0> d           1.018   3.257  -2.138  0.00  0.00     0.028 H 
ATOM      6  H4  <0> d           0.565   4.738  -1.227  0.00  0.00     0.028 H 
ENDBRANCH   1   3
BRANCH   1   7
ATOM      7  C3  <0> d           2.696   3.548  -0.005  0.00  0.00    -0.042 A 
ATOM      8  C5  <0> d           2.968   5.054   0.001  0.00  0.00    -0.060 A 
ATOM      9  C4  <0> d           3.236   4.223   1.258  0.00  0.00    -0.060 A 
ATOM     10  H8  <0> d           3.716   5.294  -0.769  0.00  0.00     0.033 H 
ATOM     11  H9  <0> d           2.035   5.596  -0.212  0.00  0.00     0.033 H 
ATOM     12  H6  <0> d           2.524   4.079   2.084  0.00  0.00     0.033 H 
ATOM     13  H7  <0> d           4.205   3.777   1.526  0.00  0.00     0.033 H 
ATOM     14  H5  <0> d           3.014   2.702  -0.631  0.00  0.00     0.041 H 
ENDBRANCH   1   7
BRANCH   1  15
ATOM     15  C6  <0> d           1.177   1.588  -0.001  0.00  0.00     0.177 C 
ATOM     16  O1  <0> d           2.199   0.944  -0.014  0.00  0.00    -0.648 OA
ATOM     17  O2  <0> d          -0.011   0.963   0.007  0.00  0.00    -0.648 OA
ENDBRANCH   1  15
TORSDOF 3
