REMARK  4 active torsions:
REMARK  status: ('A' for Active; 'I' for Inactive)
REMARK    1  A    between atoms: C1_1  and  C2_2 
REMARK    2  A    between atoms: C6_6  and  O1_8 
REMARK    3  A    between atoms: O1_8  and  C8_9 
REMARK    4  A    between atoms: C8_9  and  C9_11 
ROOT
ATOM      1  C2  <0> d           0.115   0.018   0.029  0.00  0.00    -0.059 A 
ATOM      2  C3  <0> d           0.025  -0.651  -1.178  0.00  0.00    -0.077 A 
ATOM      3  C4  <0> d          -0.055  -2.031  -1.201  0.00  0.00    -0.080 A 
ATOM      4  C5  <0> d          -0.047  -2.745  -0.018  0.00  0.00    -0.050 A 
ATOM      5  C6  <0> d           0.042  -2.076   1.194  0.00  0.00     0.079 A 
ATOM      6  C7  <0> d           0.129  -0.691   1.214  0.00  0.00    -0.044 A 
ATOM      7  H4  <0> d           0.019  -0.095  -2.103  0.00  0.00     0.084 H 
ATOM      8  H5  <0> d          -0.125  -2.551  -2.145  0.00  0.00     0.083 H 
ATOM      9  H6  <0> d          -0.111  -3.823  -0.037  0.00  0.00     0.087 H 
ATOM     10  H7  <0> d           0.203  -0.168   2.156  0.00  0.00     0.088 H 
ENDROOT
BRANCH   5  11
ATOM     11  O1  <0> d           0.050  -2.776   2.359  0.00  0.00    -0.279 OA
BRANCH  11  12
ATOM     12  C8  <0> d          -1.022  -2.677   3.161  0.00  0.00     0.260 C 
ATOM     13  O2  <0> d          -1.998  -2.066   2.793  0.00  0.00    -0.265 OA
BRANCH  12  14
ATOM     14  C9  <0> d          -1.009  -3.327   4.520  0.00  0.00     0.004 C 
ATOM     15  H8  <0> d          -0.621  -2.623   5.256  0.00  0.00     0.041 H 
ATOM     16  H9  <0> d          -2.024  -3.617   4.794  0.00  0.00     0.041 H 
ATOM     17  H10 <0> d          -0.373  -4.212   4.493  0.00  0.00     0.041 H 
ENDBRANCH  12  14
ENDBRANCH  11  12
ENDBRANCH   5  11
BRANCH   1  18
ATOM     18  C1  <0> d           0.203   1.523   0.051  0.00  0.00    -0.051 C 
ATOM     19  H1  <0> d           1.248   1.826   0.008  0.00  0.00     0.033 H 
ATOM     20  H2  <0> d          -0.329   1.930  -0.809  0.00  0.00     0.033 H 
ATOM     21  H3  <0> d          -0.248   1.900   0.969  0.00  0.00     0.033 H 
ENDBRANCH   1  18
TORSDOF 4
