REMARK  2 active torsions:
REMARK  status: ('A' for Active; 'I' for Inactive)
REMARK    1  A    between atoms: C4_5  and  C6_7 
REMARK    2  A    between atoms: C6_7  and  C7_8 
REMARK       I    between atoms: C7_8  and  N2_10 
ROOT
ATOM      1  C1  <0> d          -0.017   1.382   0.010  0.00  0.00    -0.080 A 
ATOM      2  C2  <0> d           1.194   2.059   0.002  0.00  0.00    -0.066 A 
ATOM      3  C3  <0> d           2.370   1.334  -0.013  0.00  0.00     0.002 A 
ATOM      4  N1  <0> d           2.350   0.015  -0.021  0.00  0.00    -0.265 NA
ATOM      5  C4  <0> d           1.218  -0.661  -0.014  0.00  0.00     0.043 A 
ATOM      6  C5  <0> d           0.002  -0.004   0.002  0.00  0.00    -0.059 A 
ATOM      7  H1  <0> d          -0.952   1.922   0.026  0.00  0.00     0.083 H 
ATOM      8  H2  <0> d           1.217   3.138   0.007  0.00  0.00     0.085 H 
ATOM      9  H3  <0> d           3.317   1.853  -0.020  0.00  0.00     0.114 H 
ATOM     10  H4  <0> d          -0.922  -0.564   0.008  0.00  0.00     0.086 H 
ENDROOT
BRANCH   5  11
ATOM     11  C6  <0> d           1.250  -2.168  -0.023  0.00  0.00     0.049 C 
ATOM     12  H5  <0> d           1.702  -2.527   0.902  0.00  0.00     0.056 H 
ATOM     13  H6  <0> d           0.234  -2.553  -0.105  0.00  0.00     0.056 H 
BRANCH  11  14
ATOM     14  C7  <0> d           2.064  -2.645  -1.198  0.00  0.00     0.221 C 
ATOM     15  O1  <0> d           2.569  -1.841  -1.953  0.00  0.00    -0.273 OA
ATOM     16  N2  <0> d           2.232  -3.966  -1.409  0.00  0.00    -0.370 N 
ATOM     17  H7  <0> d           1.829  -4.609  -0.805  0.00  0.00     0.159 HD
ATOM     18  H8  <0> d           2.756  -4.273  -2.166  0.00  0.00     0.159 HD
ENDBRANCH  11  14
ENDBRANCH   5  11
TORSDOF 2
