REMARK  3 active torsions:
REMARK  status: ('A' for Active; 'I' for Inactive)
REMARK    1  A    between atoms: C4_4  and  N1_7 
REMARK       I    between atoms: N1_7  and  C7_8 
REMARK    2  A    between atoms: C7_8  and  C8_10 
REMARK    3  A    between atoms: C8_10  and  O2_11 
ROOT
ATOM      1  C1  <0> d           4.035   2.010  -0.853  0.00  0.00    -0.065 C 
ATOM      2  C2  <0> d           3.675   1.633   0.585  0.00  0.00    -0.063 C 
ATOM      3  C3  <0> d           2.361   0.850   0.594  0.00  0.00    -0.046 C 
ATOM      4  C4  <0> d           1.248   1.716  -0.001  0.00  0.00     0.012 C 
ATOM      5  C5  <0> d           1.608   2.092  -1.439  0.00  0.00    -0.046 C 
ATOM      6  C6  <0> d           2.922   2.875  -1.448  0.00  0.00    -0.063 C 
ATOM      7  H1  <0> d           4.149   1.095  -1.454  0.00  0.00     0.033 H 
ATOM      8  H2  <0> d           4.980   2.573  -0.859  0.00  0.00     0.033 H 
ATOM      9  H3  <0> d           4.475   1.011   1.013  0.00  0.00     0.033 H 
ATOM     10  H4  <0> d           3.561   2.547   1.186  0.00  0.00     0.033 H 
ATOM     11  H5  <0> d           2.474  -0.064  -0.007  0.00  0.00     0.035 H 
ATOM     12  H6  <0> d           2.102   0.579   1.628  0.00  0.00     0.035 H 
ATOM     13  H7  <0> d           1.091   2.618   0.609  0.00  0.00     0.072 H 
ATOM     14  H8  <0> d           1.722   1.178  -2.040  0.00  0.00     0.035 H 
ATOM     15  H9  <0> d           0.807   2.714  -1.867  0.00  0.00     0.035 H 
ATOM     16  H10 <0> d           2.808   3.789  -0.847  0.00  0.00     0.033 H 
ATOM     17  H11 <0> d           3.181   3.146  -2.482  0.00  0.00     0.033 H 
ENDROOT
BRANCH   4  18
ATOM     18  N1  <0> d          -0.011   0.966   0.007  0.00  0.00    -0.355 N 
ATOM     19  C7  <0> d          -1.187   1.624   0.017  0.00  0.00     0.241 C 
ATOM     20  O1  <0> d          -1.204   2.837   0.023  0.00  0.00    -0.271 OA
ATOM     21  H12 <0> d           0.004  -0.134   0.006  0.00  0.00     0.162 HD
BRANCH  19  22
ATOM     22  C8  <0> d          -2.482   0.853   0.018  0.00  0.00     0.090 C 
ATOM     23  H13 <0> d          -2.536   0.224  -0.883  0.00  0.00     0.088 H 
ATOM     24  H14 <0> d          -2.527   0.215   0.913  0.00  0.00     0.088 H 
BRANCH  22  25
ATOM     25  O2  <0> d          -3.581   1.766   0.029  0.00  0.00    -0.392 OA
ATOM     26  H15 <0> d          -4.613   1.386   0.031  0.00  0.00     0.210 HD
ENDBRANCH  22  25
ENDBRANCH  19  22
ENDBRANCH   4  18
TORSDOF 3
