REMARK  1 active torsions:
REMARK  status: ('A' for Active; 'I' for Inactive)
REMARK    1  A    between atoms: C6_8  and  C8_10 
ROOT
ATOM      1  C1  <0> d          -0.018   1.494   0.010  0.00  0.00    -0.061 C 
ATOM      2  C2  <0> d           1.534   1.275  -0.006  0.00  0.00    -0.061 C 
ATOM      3  C3  <0> d           1.165   0.275   1.042  0.00  0.00    -0.050 C 
ATOM      4  H1  <0> d           0.773   0.732   1.951  0.00  0.00     0.040 H 
ATOM      5  C4  <0> d           0.002  -0.004   0.002  0.00  0.00    -0.050 C 
ATOM      6  H2  <0> d           0.354  -0.435  -0.935  0.00  0.00     0.040 H 
ATOM      7  C5  <0> d          -0.791  -0.988   0.840  0.00  0.00    -0.049 C 
ATOM      8  C6  <0> d           0.327  -1.978   1.298  0.00  0.00     0.031 C 
ATOM      9  C7  <0> d           1.618  -1.145   1.262  0.00  0.00    -0.049 C 
ATOM     10  H3  <0> d          -0.404   1.937   0.928  0.00  0.00     0.033 H 
ATOM     11  H4  <0> d          -0.422   1.947  -0.895  0.00  0.00     0.033 H 
ATOM     12  H5  <0> d           1.922   0.844  -0.928  0.00  0.00     0.033 H 
ATOM     13  H6  <0> d           2.115   2.122   0.359  0.00  0.00     0.033 H 
ATOM     14  H7  <0> d          -1.250  -0.493   1.695  0.00  0.00     0.034 H 
ATOM     15  H8  <0> d          -1.542  -1.499   0.236  0.00  0.00     0.034 H 
ATOM     16  H9  <0> d           0.403  -2.814   0.603  0.00  0.00     0.056 H 
ATOM     17  H10 <0> d           2.249  -1.477   0.438  0.00  0.00     0.034 H 
ATOM     18  H11 <0> d           2.148  -1.234   2.210  0.00  0.00     0.034 H 
ENDROOT
BRANCH   8  19
ATOM     19  C8  <0> d           0.046  -2.477   2.692  0.00  0.00     0.177 C 
ATOM     20  O1  <0> d           0.253  -3.645   2.975  0.00  0.00    -0.648 OA
ATOM     21  O2  <0> d          -0.387  -1.713   3.538  0.00  0.00    -0.648 OA
ENDBRANCH   8  19
TORSDOF 1
