REMARK  4 active torsions:
REMARK  status: ('A' for Active; 'I' for Inactive)
REMARK    1  A    between atoms: C1_1  and  C2_2 
REMARK    2  A    between atoms: C2_2  and  O1_3 
REMARK    3  A    between atoms: O1_3  and  C3_4 
REMARK    4  A    between atoms: C3_4  and  C4_5 
ROOT
ATOM      1  C4  <0> d          -0.864   1.675   3.590  0.00  0.00     0.151 C 
ATOM      2  O2  <0> d          -2.204   1.179   3.535  0.00  0.00    -0.359 OA
ATOM      3  C5  <0> d          -3.040   1.659   4.592  0.00  0.00     0.025 C 
ATOM      4  C6  <0> d          -3.068   3.190   4.548  0.00  0.00    -0.025 C 
ATOM      5  C7  <0> d          -1.629   3.713   4.590  0.00  0.00     0.025 C 
ATOM      6  O3  <0> d          -0.882   3.103   3.533  0.00  0.00    -0.359 OA
ATOM      7  H8  <0> d          -0.396   1.354   4.521  0.00  0.00     0.132 H 
ATOM      8  H9  <0> d          -2.641   1.328   5.551  0.00  0.00     0.074 H 
ATOM      9  H10 <0> d          -4.051   1.271   4.464  0.00  0.00     0.074 H 
ATOM     10  H11 <0> d          -3.620   3.570   5.408  0.00  0.00     0.039 H 
ATOM     11  H12 <0> d          -3.550   3.520   3.628  0.00  0.00     0.039 H 
ATOM     12  H13 <0> d          -1.176   3.461   5.549  0.00  0.00     0.074 H 
ATOM     13  H14 <0> d          -1.629   4.795   4.458  0.00  0.00     0.074 H 
ENDROOT
BRANCH   1  14
ATOM     14  C3  <0> d          -0.068   1.127   2.404  0.00  0.00     0.065 C 
ATOM     15  H6  <0> d          -0.054   0.037   2.448  0.00  0.00     0.081 H 
ATOM     16  H7  <0> d           0.954   1.505   2.446  0.00  0.00     0.081 H 
BRANCH  14  17
ATOM     17  O1  <0> d          -0.682   1.547   1.184  0.00  0.00    -0.387 OA
BRANCH  17  18
ATOM     18  C2  <0> d          -0.013   1.086   0.008  0.00  0.00     0.016 C 
ATOM     19  H4  <0> d           0.002  -0.004   0.002  0.00  0.00     0.073 H 
ATOM     20  H5  <0> d           1.010   1.463   0.000  0.00  0.00     0.073 H 
BRANCH  18  21
ATOM     21  C1  <0> d          -0.753   1.593  -1.232  0.00  0.00    -0.056 C 
ATOM     22  H1  <0> d          -0.242   1.241  -2.128  0.00  0.00     0.030 H 
ATOM     23  H2  <0> d          -1.775   1.215  -1.224  0.00  0.00     0.030 H 
ATOM     24  H3  <0> d          -0.767   2.683  -1.226  0.00  0.00     0.030 H 
ENDBRANCH  18  21
ENDBRANCH  17  18
ENDBRANCH  14  17
ENDBRANCH   1  14
TORSDOF 4
