REMARK  0 active torsions:
REMARK  status: ('A' for Active; 'I' for Inactive)
ROOT
ATOM      1  C1  <0> d           3.536   0.796  -0.027  0.00  0.00    -0.018 A 
ATOM      2  C2  <0> d           4.076   2.064  -0.025  0.00  0.00     0.121 A 
ATOM      3  C3  <0> d           3.252   3.184  -0.012  0.00  0.00    -0.007 A 
ATOM      4  C4  <0> d           1.893   3.048   0.000  0.00  0.00     0.133 A 
ATOM      5  C5  <0> d           1.320   1.768  -0.001  0.00  0.00     0.050 A 
ATOM      6  C6  <0> d           2.153   0.634  -0.015  0.00  0.00     0.067 A 
ATOM      7  N1  <0> d           1.326  -0.460  -0.013  0.00  0.00    -0.278 N 
ATOM      8  H1  <0> d           1.617  -1.416  -0.021  0.00  0.00     0.189 HD
ATOM      9  N2  <0> d           0.002  -0.004   0.002  0.00  0.00    -0.186 NA
ATOM     10  C7  <0> d          -0.016   1.297   0.009  0.00  0.00     0.037 A 
ATOM     11  F1  <0> d           1.103   4.144   0.013  0.00  0.00    -0.205 F 
ATOM     12  F2  <0> d           5.418   2.220  -0.036  0.00  0.00    -0.206 F 
ATOM     13  H2  <0> d           4.183  -0.069  -0.037  0.00  0.00     0.091 H 
ATOM     14  H3  <0> d           3.691   4.171  -0.011  0.00  0.00     0.093 H 
ATOM     15  H4  <0> d          -0.901   1.915   0.017  0.00  0.00     0.118 H 
ENDROOT
TORSDOF 0
