REMARK  6 active torsions:
REMARK  status: ('A' for Active; 'I' for Inactive)
REMARK    1  A    between atoms: C1_1  and  C2_2 
REMARK    2  A    between atoms: C2_2  and  C3_3 
REMARK    3  A    between atoms: C2_2  and  C4_4 
REMARK    4  A    between atoms: C4_4  and  C5_5 
REMARK    5  A    between atoms: C5_5  and  O2_7 
REMARK    6  A    between atoms: O2_7  and  C6_8 
ROOT
ATOM      1  C2  <0> d          -2.479   0.930   0.019  0.00  0.00    -0.053 C 
ATOM      2  H4  <0> d          -2.367   0.252  -0.827  0.00  0.00     0.039 H 
ENDROOT
BRANCH   1   3
ATOM      3  C1  <0> d          -2.453   0.128   1.322  0.00  0.00    -0.073 C 
ATOM      4  H1  <0> d          -3.272  -0.591   1.322  0.00  0.00     0.028 H 
ATOM      5  H2  <0> d          -1.504  -0.402   1.404  0.00  0.00     0.028 H 
ATOM      6  H3  <0> d          -2.566   0.806   2.168  0.00  0.00     0.028 H 
ENDBRANCH   1   3
BRANCH   1   7
ATOM      7  C3  <0> d          -3.811   1.673  -0.097  0.00  0.00    -0.073 C 
ATOM      8  H5  <0> d          -3.829   2.244  -1.025  0.00  0.00     0.028 H 
ATOM      9  H6  <0> d          -4.630   0.954  -0.097  0.00  0.00     0.028 H 
ATOM     10  H7  <0> d          -3.923   2.351   0.750  0.00  0.00     0.028 H 
ENDBRANCH   1   7
BRANCH   1  11
ATOM     11  C4  <0> d          -1.329   1.940   0.019  0.00  0.00     0.018 C 
ATOM     12  H8  <0> d          -1.391   2.561   0.913  0.00  0.00     0.048 H 
ATOM     13  H9  <0> d          -1.400   2.570  -0.867  0.00  0.00     0.048 H 
BRANCH  11  14
ATOM     14  C5  <0> d          -0.014   1.204   0.009  0.00  0.00     0.258 C 
ATOM     15  O1  <0> d           0.002  -0.004   0.002  0.00  0.00    -0.265 OA
BRANCH  14  16
ATOM     16  O2  <0> d           1.139   1.891   0.001  0.00  0.00    -0.326 OA
BRANCH  16  17
ATOM     17  C6  <0> d           2.367   1.117  -0.015  0.00  0.00     0.013 C 
ATOM     18  H10 <0> d           3.223   1.792  -0.019  0.00  0.00     0.067 H 
ATOM     19  H11 <0> d           2.409   0.484   0.872  0.00  0.00     0.067 H 
ATOM     20  H12 <0> d           2.392   0.493  -0.908  0.00  0.00     0.067 H 
ENDBRANCH  16  17
ENDBRANCH  14  16
ENDBRANCH  11  14
ENDBRANCH   1  11
TORSDOF 6
