REMARK  0 active torsions:
REMARK  status: ('A' for Active; 'I' for Inactive)
ROOT
ATOM      1  C1  <0> d          -0.019   1.528   0.010  0.00  0.00    -0.025 C 
ATOM      2  C2  <0> d           1.425   2.043  -0.001  0.00  0.00     0.024 C 
ATOM      3  O1  <0> d           2.137   1.453   1.092  0.00  0.00    -0.367 OA
ATOM      4  C3  <0> d           2.148   0.024   1.067  0.00  0.00     0.103 C 
ATOM      5  O2  <0> d           0.804  -0.464   1.094  0.00  0.00    -0.367 OA
ATOM      6  C4  <0> d           0.002  -0.004   0.002  0.00  0.00     0.024 C 
ATOM      7  H1  <0> d          -0.543   1.891  -0.874  0.00  0.00     0.039 H 
ATOM      8  H2  <0> d          -0.526   1.882   0.908  0.00  0.00     0.039 H 
ATOM      9  H3  <0> d           1.904   1.767  -0.940  0.00  0.00     0.074 H 
ATOM     10  H4  <0> d           1.426   3.128   0.106  0.00  0.00     0.074 H 
ATOM     11  H5  <0> d           2.688  -0.350   1.938  0.00  0.00     0.117 H 
ATOM     12  H6  <0> d           2.641  -0.320   0.159  0.00  0.00     0.117 H 
ATOM     13  H7  <0> d          -1.014  -0.383   0.111  0.00  0.00     0.074 H 
ATOM     14  H8  <0> d           0.425  -0.358  -0.938  0.00  0.00     0.074 H 
ENDROOT
TORSDOF 0
