REMARK  5 active torsions:
REMARK  status: ('A' for Active; 'I' for Inactive)
REMARK    1  A    between atoms: C1_1  and  N1_2 
REMARK    2  A    between atoms: N1_2  and  C2_3 
REMARK    3  A    between atoms: C2_3  and  C3_4 
REMARK    4  A    between atoms: C3_4  and  O2_6 
REMARK    5  A    between atoms: O2_6  and  C4_7 
ROOT
ATOM      1  C2  <0> d           0.683  -0.515  -1.195  0.00  0.00     0.189 C 
ATOM      2  H5  <0> d           0.161  -0.167  -2.086  0.00  0.00     0.095 H 
ATOM      3  H6  <0> d           1.711  -0.151  -1.211  0.00  0.00     0.095 H 
ENDROOT
BRANCH   1   4
ATOM      4  N1  <0> d           0.002  -0.004   0.002  0.00  0.00     0.088 N 
ATOM      5  H4  <0> d           0.429  -0.364   0.842  0.00  0.00     0.315 HD
BRANCH   4   6
ATOM      6  C1  <0> d          -0.018   1.465   0.010  0.00  0.00     0.094 C 
ATOM      7  H1  <0> d           1.005   1.842   0.002  0.00  0.00     0.071 H 
ATOM      8  H2  <0> d          -0.545   1.826  -0.873  0.00  0.00     0.071 H 
ATOM      9  H3  <0> d          -0.528   1.816   0.907  0.00  0.00     0.071 H 
ENDBRANCH   4   6
ENDBRANCH   1   4
BRANCH   1  10
ATOM     10  C3  <0> d           0.684  -2.022  -1.168  0.00  0.00     0.286 C 
ATOM     11  O1  <0> d           0.170  -2.610  -0.247  0.00  0.00    -0.263 OA
BRANCH  10  12
ATOM     12  O2  <0> d           1.256  -2.710  -2.168  0.00  0.00    -0.325 OA
BRANCH  12  13
ATOM     13  C4  <0> d           1.220  -4.136  -2.078  0.00  0.00     0.013 C 
ATOM     14  H7  <0> d           0.184  -4.472  -2.046  0.00  0.00     0.067 H 
ATOM     15  H8  <0> d           1.716  -4.568  -2.947  0.00  0.00     0.067 H 
ATOM     16  H9  <0> d           1.733  -4.456  -1.171  0.00  0.00     0.067 H 
ENDBRANCH  12  13
ENDBRANCH  10  12
ENDBRANCH   1  10
TORSDOF 5
