REMARK  0 active torsions:
REMARK  status: ('A' for Active; 'I' for Inactive)
ROOT
ATOM      1  C1  <0> d           2.384   1.382  -0.013  0.00  0.00    -0.082 A 
ATOM      2  C2  <0> d           1.181   2.064   0.002  0.00  0.00    -0.082 A 
ATOM      3  C3  <0> d          -0.017   1.366   0.010  0.00  0.00    -0.073 A 
ATOM      4  C4  <0> d           0.002  -0.004   0.002  0.00  0.00    -0.017 A 
ATOM      5  C5  <0> d           1.213  -0.691  -0.013  0.00  0.00    -0.017 A 
ATOM      6  C6  <0> d           2.399  -0.004  -0.021  0.00  0.00    -0.073 A 
ATOM      7  C7  <0> d           0.820  -2.165  -0.017  0.00  0.00     0.082 C 
ATOM      8  H1  <0> d           1.585  -2.872  -0.338  0.00  0.00     0.097 H 
ATOM      9  C8  <0> d           0.210  -2.419   1.367  0.00  0.00    -0.072 C 
ATOM     10  C9  <0> d          -0.942  -1.766   1.381  0.00  0.00    -0.072 C 
ATOM     11  C10 <0> d          -1.061  -1.098   0.006  0.00  0.00     0.082 C 
ATOM     12  H2  <0> d          -2.064  -0.788  -0.287  0.00  0.00     0.097 H 
ATOM     13  O1  <0> d          -0.405  -2.115  -0.833  0.00  0.00    -0.363 OA
ATOM     14  H3  <0> d           3.314   1.930  -0.018  0.00  0.00     0.083 H 
ATOM     15  H4  <0> d           1.175   3.144   0.008  0.00  0.00     0.083 H 
ATOM     16  H5  <0> d          -0.957   1.898   0.017  0.00  0.00     0.084 H 
ATOM     17  H6  <0> d           3.337  -0.539  -0.033  0.00  0.00     0.084 H 
ATOM     18  H7  <0> d           0.633  -3.011   2.166  0.00  0.00     0.081 H 
ATOM     19  H8  <0> d          -1.651  -1.715   2.194  0.00  0.00     0.081 H 
ENDROOT
TORSDOF 0
