REMARK  6 active torsions:
REMARK  status: ('A' for Active; 'I' for Inactive)
REMARK    1  A    between atoms: C1_1  and  C2_2 
REMARK    2  A    between atoms: C2_2  and  O1_3 
REMARK    3  A    between atoms: O1_3  and  C3_4 
REMARK    4  A    between atoms: C3_4  and  C4_6 
REMARK    5  A    between atoms: C4_6  and  C5_7 
REMARK    6  A    between atoms: C5_7  and  C6_8 
ROOT
ATOM      1  C4  <0> d          -2.182   1.345  -1.162  0.00  0.00     0.019 C 
ATOM      2  H6  <0> d          -1.658   1.552  -2.095  0.00  0.00     0.048 H 
ATOM      3  H7  <0> d          -2.365   0.274  -1.077  0.00  0.00     0.048 H 
ENDROOT
BRANCH   1   4
ATOM      4  C3  <0> d          -3.498   2.080  -1.152  0.00  0.00     0.259 C 
ATOM      5  O2  <0> d          -3.728   2.894  -0.289  0.00  0.00    -0.265 OA
BRANCH   4   6
ATOM      6  O1  <0> d          -4.413   1.831  -2.101  0.00  0.00    -0.322 OA
BRANCH   6   7
ATOM      7  C2  <0> d          -5.657   2.577  -2.029  0.00  0.00     0.025 C 
ATOM      8  H4  <0> d          -6.153   2.366  -1.081  0.00  0.00     0.074 H 
ATOM      9  H5  <0> d          -5.446   3.644  -2.099  0.00  0.00     0.074 H 
BRANCH   7  10
ATOM     10  C1  <0> d          -6.569   2.161  -3.185  0.00  0.00    -0.056 C 
ATOM     11  H1  <0> d          -6.073   2.372  -4.133  0.00  0.00     0.030 H 
ATOM     12  H2  <0> d          -6.780   1.094  -3.115  0.00  0.00     0.030 H 
ATOM     13  H3  <0> d          -7.503   2.721  -3.131  0.00  0.00     0.030 H 
ENDBRANCH   7  10
ENDBRANCH   6   7
ENDBRANCH   4   6
ENDBRANCH   1   4
BRANCH   1  14
ATOM     14  C5  <0> d          -1.328   1.812   0.018  0.00  0.00    -0.042 C 
ATOM     15  H8  <0> d          -1.853   1.605   0.951  0.00  0.00     0.039 H 
ATOM     16  H9  <0> d          -1.145   2.883  -0.066  0.00  0.00     0.039 H 
BRANCH  14  17
ATOM     17  C6  <0> d          -0.013   1.076   0.008  0.00  0.00    -0.112 C 
ATOM     18  C7  <0> d           1.113   1.746   0.001  0.00  0.00    -0.125 C 
ATOM     19  H11 <0> d           1.098   2.826   0.007  0.00  0.00     0.066 H 
ATOM     20  H12 <0> d           2.055   1.219  -0.011  0.00  0.00     0.066 H 
ATOM     21  H10 <0> d           0.002  -0.004   0.002  0.00  0.00     0.075 H 
ENDBRANCH  14  17
ENDBRANCH   1  14
TORSDOF 6
