REMARK  4 active torsions:
REMARK  status: ('A' for Active; 'I' for Inactive)
REMARK    1  A    between atoms: C1_1  and  C2_2 
REMARK    2  A    between atoms: C2_2  and  C3_4 
REMARK    3  A    between atoms: C2_2  and  N1_6 
REMARK    4  A    between atoms: C3_4  and  O1_5 
ROOT
ATOM      1  C2  <0> d          -2.508   1.377   0.020  0.00  0.00     0.034 C 
ATOM      2  H1  <0> d          -3.182   2.234   0.027  0.00  0.00     0.076 H 
ENDROOT
BRANCH   1   3
ATOM      3  C1  <0> d          -2.764   0.537  -1.232  0.00  0.00    -0.055 C 
ATOM      4  H2  <0> d          -3.797   0.187  -1.230  0.00  0.00     0.030 H 
ATOM      5  H3  <0> d          -2.589   1.145  -2.120  0.00  0.00     0.030 H 
ATOM      6  H4  <0> d          -2.090  -0.320  -1.239  0.00  0.00     0.030 H 
ENDBRANCH   1   3
BRANCH   1   7
ATOM      7  C3  <0> d          -2.754   0.524   1.266  0.00  0.00     0.036 C 
ATOM      8  H5  <0> d          -2.144  -0.377   1.215  0.00  0.00     0.077 H 
ATOM      9  H6  <0> d          -2.486   1.095   2.156  0.00  0.00     0.077 H 
BRANCH   7  10
ATOM     10  O1  <0> d          -4.135   0.162   1.330  0.00  0.00    -0.399 OA
ATOM     11  H7  <0> d          -4.364  -0.381   2.097  0.00  0.00     0.209 HD
ENDBRANCH   7  10
ENDBRANCH   1   7
BRANCH   1  12
ATOM     12  N1  <0> d          -1.121   1.848   0.017  0.00  0.00    -0.344 N 
ATOM     13  C6  <0> d          -0.013   1.076   0.008  0.00  0.00     0.066 A 
ATOM     14  N2  <0> d           1.037   1.851   0.002  0.00  0.00    -0.255 NA
ATOM     15  H10 <0> d           0.002  -0.004   0.002  0.00  0.00     0.143 H 
ATOM     16  C5  <0> d           0.641   3.132   0.013  0.00  0.00     0.018 A 
ATOM     17  C4  <0> d          -0.705   3.152   0.026  0.00  0.00    -0.002 A 
ATOM     18  H9  <0> d           1.289   3.997   0.011  0.00  0.00     0.117 H 
ATOM     19  H8  <0> d          -1.336   4.029   0.036  0.00  0.00     0.113 H 
ENDBRANCH   1  12
TORSDOF 4
