REMARK  3 active torsions:
REMARK  status: ('A' for Active; 'I' for Inactive)
REMARK    1  A    between atoms: C1_1  and  N1_2 
REMARK    2  A    between atoms: N1_2  and  C2_3 
REMARK       I    between atoms: N1_2  and  C3_4 
REMARK    3  A    between atoms: C3_4  and  C4_6 
ROOT
ATOM      1  C4  <0> d          -1.135  -2.201   0.001  0.00  0.00     0.028 C 
ATOM      2  C5  <0> d          -0.957  -2.807  -1.401  0.00  0.00    -0.026 C 
ATOM      3  C6  <0> d          -1.988  -3.869  -0.987  0.00  0.00     0.074 C 
ATOM      4  C7  <0> d          -2.536  -2.836   0.011  0.00  0.00    -0.026 C 
ATOM      5  O2  <0> d          -1.409  -5.017  -0.363  0.00  0.00    -0.235 OA
ATOM      6  H7  <0> d          -0.461  -2.619   0.748  0.00  0.00     0.054 H 
ATOM      7  H8  <0> d          -1.299  -2.155  -2.205  0.00  0.00     0.038 H 
ATOM      8  H9  <0> d           0.040  -3.211  -1.578  0.00  0.00     0.038 H 
ATOM      9  H10 <0> d          -2.692  -4.127  -1.779  0.00  0.00     0.088 H 
ATOM     10  H11 <0> d          -2.814  -3.264   0.974  0.00  0.00     0.038 H 
ATOM     11  H12 <0> d          -3.310  -2.192  -0.407  0.00  0.00     0.038 H 
ENDROOT
BRANCH   1  12
ATOM     12  C3  <0> d          -1.156  -0.694   0.009  0.00  0.00     0.223 C 
ATOM     13  N1  <0> d           0.002  -0.004   0.002  0.00  0.00    -0.360 N 
ATOM     14  O1  <0> d          -2.214  -0.102   0.023  0.00  0.00    -0.273 OA
BRANCH  13  15
ATOM     15  C1  <0> d          -0.018   1.461   0.010  0.00  0.00    -0.017 C 
ATOM     16  H1  <0> d           1.005   1.838   0.002  0.00  0.00     0.056 H 
ATOM     17  H2  <0> d          -0.545   1.822  -0.873  0.00  0.00     0.056 H 
ATOM     18  H3  <0> d          -0.528   1.812   0.907  0.00  0.00     0.056 H 
ENDBRANCH  13  15
BRANCH  13  19
ATOM     19  C2  <0> d           1.281  -0.719  -0.014  0.00  0.00    -0.017 C 
ATOM     20  H4  <0> d           1.607  -0.902   1.010  0.00  0.00     0.056 H 
ATOM     21  H5  <0> d           1.158  -1.671  -0.532  0.00  0.00     0.056 H 
ATOM     22  H6  <0> d           2.027  -0.117  -0.532  0.00  0.00     0.056 H 
ENDBRANCH  13  19
ENDBRANCH   1  12
TORSDOF 3
