REMARK  7 active torsions:
REMARK  status: ('A' for Active; 'I' for Inactive)
REMARK    1  A    between atoms: C1_1  and  C2_2 
REMARK    2  A    between atoms: C2_2  and  C3_3 
REMARK    3  A    between atoms: C2_2  and  C4_4 
REMARK    4  A    between atoms: C4_4  and  C5_5 
REMARK    5  A    between atoms: C5_5  and  C6_7 
REMARK    6  A    between atoms: C5_5  and  O1_10 
REMARK    7  A    between atoms: C6_7  and  C8_9 
ROOT
ATOM      1  C4  <0> d          -0.738   2.023   1.279  0.00  0.00    -0.035 C 
ATOM      2  H9  <0> d          -1.687   1.517   1.455  0.00  0.00     0.037 H 
ATOM      3  H10 <0> d          -0.060   1.823   2.109  0.00  0.00     0.037 H 
ENDROOT
BRANCH   1   4
ATOM      4  C2  <0> d          -0.118   1.508  -0.021  0.00  0.00    -0.059 C 
ATOM      5  H5  <0> d           0.780   2.082  -0.248  0.00  0.00     0.039 H 
BRANCH   4   6
ATOM      6  C1  <0> d          -1.125   1.662  -1.162  0.00  0.00    -0.073 C 
ATOM      7  H2  <0> d          -2.023   1.087  -0.935  0.00  0.00     0.028 H 
ATOM      8  H3  <0> d          -1.386   2.714  -1.277  0.00  0.00     0.028 H 
ATOM      9  H4  <0> d          -0.683   1.295  -2.089  0.00  0.00     0.028 H 
ENDBRANCH   4   6
BRANCH   4  10
ATOM     10  C3  <0> d           0.249   0.031   0.139  0.00  0.00    -0.073 C 
ATOM     11  H6  <0> d           0.609  -0.359  -0.812  0.00  0.00     0.028 H 
ATOM     12  H7  <0> d           1.030  -0.070   0.892  0.00  0.00     0.028 H 
ATOM     13  H8  <0> d          -0.632  -0.530   0.452  0.00  0.00     0.028 H 
ENDBRANCH   4  10
ENDBRANCH   1   4
BRANCH   1  14
ATOM     14  C5  <0> d          -0.977   3.530   1.168  0.00  0.00     0.056 C 
ATOM     15  H1  <0> d          -1.595   3.736   0.294  0.00  0.00     0.090 H 
BRANCH  14  16
ATOM     16  C6  <0> d          -1.681   4.020   2.407  0.00  0.00    -0.065 C 
ATOM     17  C7  <0> d          -2.896   4.502   2.323  0.00  0.00    -0.117 C 
ATOM     18  H11 <0> d          -3.394   4.548   1.366  0.00  0.00     0.067 H 
ATOM     19  H12 <0> d          -3.400   4.853   3.212  0.00  0.00     0.067 H 
BRANCH  16  20
ATOM     20  C8  <0> d          -0.986   3.957   3.743  0.00  0.00    -0.053 C 
ATOM     21  H13 <0> d          -0.435   4.882   3.911  0.00  0.00     0.033 H 
ATOM     22  H14 <0> d          -1.727   3.827   4.532  0.00  0.00     0.033 H 
ATOM     23  H15 <0> d          -0.293   3.115   3.753  0.00  0.00     0.033 H 
ENDBRANCH  16  20
ENDBRANCH  14  16
BRANCH  14  24
ATOM     24  O1  <0> d           0.277   4.203   1.034  0.00  0.00    -0.391 OA
ATOM     25  H16 <0> d           0.879   4.064   1.778  0.00  0.00     0.210 HD
ENDBRANCH  14  24
ENDBRANCH   1  14
TORSDOF 7
