REMARK  0 active torsions:
REMARK  status: ('A' for Active; 'I' for Inactive)
ROOT
ATOM      1  C1  <0> d          -0.018   1.453   0.010  0.00  0.00    -0.064 A 
ATOM      2  C2  <0> d           1.144   2.152   0.003  0.00  0.00    -0.052 A 
ATOM      3  C3  <0> d           2.398   1.386  -0.013  0.00  0.00     0.082 A 
ATOM      4  N1  <0> d           3.665   1.696  -0.024  0.00  0.00    -0.305 N 
ATOM      5  C4  <0> d           4.398   0.526  -0.038  0.00  0.00     0.326 A 
ATOM      6  O1  <0> d           5.609   0.462  -0.050  0.00  0.00    -0.247 OA
ATOM      7  N2  <0> d           3.553  -0.550  -0.035  0.00  0.00    -0.291 N 
ATOM      8  C5  <0> d           2.314  -0.108  -0.021  0.00  0.00     0.158 A 
ATOM      9  N3  <0> d           1.110  -0.697  -0.012  0.00  0.00    -0.241 NA
ATOM     10  C6  <0> d           0.002  -0.004   0.002  0.00  0.00     0.005 A 
ATOM     11  H1  <0> d          -0.961   1.978   0.026  0.00  0.00     0.085 H 
ATOM     12  H2  <0> d           1.148   3.232   0.008  0.00  0.00     0.087 H 
ATOM     13  H3  <0> d          -0.939  -0.534   0.008  0.00  0.00     0.114 H 
ATOM     14  H4  <0> d           3.823  -1.482  -0.043  0.00  0.00     0.172 HD
ATOM     15  H5  <0> d           4.030   2.595  -0.023  0.00  0.00     0.171 HD
ENDROOT
TORSDOF 0
