REMARK  5 active torsions:
REMARK  status: ('A' for Active; 'I' for Inactive)
REMARK    1  A    between atoms: C1_1  and  C2_2 
REMARK    2  A    between atoms: C2_2  and  C3_4 
REMARK    3  A    between atoms: C2_2  and  O1_11 
REMARK    4  A    between atoms: C7_8  and  N1_10 
REMARK    5  A    between atoms: O1_11  and  C9_12 
ROOT
ATOM      1  C3  <0> d          -1.412  -0.526   0.013  0.00  0.00    -0.028 A 
ATOM      2  C4  <0> d          -2.105  -0.666  -1.176  0.00  0.00    -0.074 A 
ATOM      3  C5  <0> d          -3.403  -1.143  -1.170  0.00  0.00    -0.080 A 
ATOM      4  C6  <0> d          -4.011  -1.483   0.023  0.00  0.00    -0.058 A 
ATOM      5  C7  <0> d          -3.317  -1.344   1.218  0.00  0.00     0.026 A 
ATOM      6  C8  <0> d          -2.011  -0.869   1.208  0.00  0.00    -0.049 A 
ATOM      7  H5  <0> d          -1.633  -0.401  -2.110  0.00  0.00     0.084 H 
ATOM      8  H6  <0> d          -3.942  -1.251  -2.100  0.00  0.00     0.083 H 
ATOM      9  H7  <0> d          -5.024  -1.856   0.026  0.00  0.00     0.086 H 
ATOM     10  H8  <0> d          -1.468  -0.763   2.136  0.00  0.00     0.087 H 
ENDROOT
BRANCH   1  11
ATOM     11  C2  <0> d           0.002  -0.004   0.002  0.00  0.00     0.059 C 
ATOM     12  H1  <0> d           0.529  -0.365   0.885  0.00  0.00     0.090 H 
BRANCH  11  13
ATOM     13  C1  <0> d          -0.019   1.526   0.010  0.00  0.00    -0.048 C 
ATOM     14  H2  <0> d           1.004   1.903   0.003  0.00  0.00     0.031 H 
ATOM     15  H3  <0> d          -0.546   1.887  -0.873  0.00  0.00     0.031 H 
ATOM     16  H4  <0> d          -0.529   1.877   0.907  0.00  0.00     0.031 H 
ENDBRANCH  11  13
BRANCH  11  17
ATOM     17  O1  <0> d           0.671  -0.465  -1.174  0.00  0.00    -0.386 OA
BRANCH  17  18
ATOM     18  C9  <0> d           2.080  -0.640  -1.010  0.00  0.00     0.005 C 
ATOM     19  H11 <0> d           2.534   0.311  -0.733  0.00  0.00     0.066 H 
ATOM     20  H12 <0> d           2.266  -1.374  -0.226  0.00  0.00     0.066 H 
ATOM     21  H13 <0> d           2.513  -0.992  -1.946  0.00  0.00     0.066 H 
ENDBRANCH  17  18
ENDBRANCH  11  17
ENDBRANCH   1  11
BRANCH   5  22
ATOM     22  N1  <0> d          -3.928  -1.687   2.426  0.00  0.00    -0.399 N 
ATOM     23  H9  <0> d          -4.838  -2.022   2.431  0.00  0.00     0.156 HD
ATOM     24  H10 <0> d          -3.443  -1.589   3.260  0.00  0.00     0.156 HD
ENDBRANCH   5  22
TORSDOF 5
