REMARK  0 active torsions:
REMARK  status: ('A' for Active; 'I' for Inactive)
ROOT
ATOM      1  C1  <0> d           2.345   1.399  -0.011  0.00  0.00    -0.065 A 
ATOM      2  C2  <0> d           2.427   0.029  -0.020  0.00  0.00    -0.069 A 
ATOM      3  C3  <0> d           1.232  -0.697  -0.013  0.00  0.00     0.001 A 
ATOM      4  C4  <0> d           1.206  -2.162  -0.022  0.00  0.00    -0.049 A 
ATOM      5  C5  <0> d           0.025  -2.796  -0.014  0.00  0.00     0.024 A 
ATOM      6  O1  <0> d          -1.148  -2.144   0.001  0.00  0.00    -0.286 OA
ATOM      7  C6  <0> d          -1.234  -0.803   0.009  0.00  0.00     0.317 A 
ATOM      8  O2  <0> d          -2.321  -0.256   0.023  0.00  0.00    -0.257 OA
ATOM      9  C7  <0> d           0.002  -0.004   0.002  0.00  0.00     0.142 A 
ATOM     10  N1  <0> d          -0.016   1.322   0.009  0.00  0.00    -0.254 NA
ATOM     11  C8  <0> d           1.100   2.017   0.002  0.00  0.00     0.003 A 
ATOM     12  H1  <0> d           3.246   1.995  -0.015  0.00  0.00     0.085 H 
ATOM     13  H2  <0> d           3.383  -0.471  -0.032  0.00  0.00     0.085 H 
ATOM     14  H3  <0> d           2.127  -2.724  -0.034  0.00  0.00     0.087 H 
ATOM     15  H4  <0> d           0.017  -3.876  -0.020  0.00  0.00     0.123 H 
ATOM     16  H5  <0> d           1.048   3.096   0.009  0.00  0.00     0.114 H 
ENDROOT
TORSDOF 0
