REMARK  5 active torsions:
REMARK  status: ('A' for Active; 'I' for Inactive)
REMARK    1  A    between atoms: C1_1  and  C2_2 
REMARK    2  A    between atoms: C2_2  and  C3_4 
REMARK    3  A    between atoms: C2_2  and  N1_7 
REMARK    4  A    between atoms: C3_4  and  O1_5 
REMARK    5  A    between atoms: O1_5  and  C4_6 
REMARK       I    between atoms: N1_7  and  C5_8 
REMARK       I    between atoms: C5_8  and  N2_10 
ROOT
ATOM      1  C2  <0> d          -1.290   1.681   0.017  0.00  0.00     0.031 C 
ATOM      2  H1  <0> d          -1.193   2.590   0.611  0.00  0.00     0.075 H 
ENDROOT
BRANCH   1   3
ATOM      3  C1  <0> d          -1.680   2.047  -1.416  0.00  0.00    -0.055 C 
ATOM      4  H2  <0> d          -1.777   1.139  -2.010  0.00  0.00     0.030 H 
ATOM      5  H3  <0> d          -2.631   2.580  -1.409  0.00  0.00     0.030 H 
ATOM      6  H4  <0> d          -0.910   2.685  -1.850  0.00  0.00     0.030 H 
ENDBRANCH   1   3
BRANCH   1   7
ATOM      7  C3  <0> d          -2.370   0.786   0.627  0.00  0.00     0.037 C 
ATOM      8  H5  <0> d          -2.051   0.452   1.615  0.00  0.00     0.077 H 
ATOM      9  H6  <0> d          -3.300   1.348   0.716  0.00  0.00     0.077 H 
BRANCH   7  10
ATOM     10  O1  <0> d          -2.579  -0.350  -0.215  0.00  0.00    -0.394 OA
BRANCH  10  11
ATOM     11  C4  <0> d          -3.574  -1.255   0.267  0.00  0.00     0.004 C 
ATOM     12  H7  <0> d          -3.280  -1.631   1.247  0.00  0.00     0.066 H 
ATOM     13  H8  <0> d          -4.529  -0.736   0.348  0.00  0.00     0.066 H 
ATOM     14  H9  <0> d          -3.673  -2.090  -0.428  0.00  0.00     0.066 H 
ENDBRANCH  10  11
ENDBRANCH   7  10
ENDBRANCH   1   7
BRANCH   1  15
ATOM     15  N1  <0> d          -0.011   0.966   0.007  0.00  0.00    -0.337 N 
ATOM     16  C5  <0> d           1.147   1.655  -0.000  0.00  0.00     0.314 C 
ATOM     17  O2  <0> d           1.130   2.871   0.007  0.00  0.00    -0.248 OA
ATOM     18  N2  <0> d           2.323   0.998  -0.015  0.00  0.00    -0.352 N 
ATOM     19  H11 <0> d           2.336   0.028  -0.020  0.00  0.00     0.160 HD
ATOM     20  H12 <0> d           3.156   1.494  -0.020  0.00  0.00     0.160 HD
ATOM     21  H10 <0> d           0.002  -0.004   0.002  0.00  0.00     0.164 HD
ENDBRANCH   1  15
TORSDOF 5
