REMARK  3 active torsions:
REMARK  status: ('A' for Active; 'I' for Inactive)
REMARK    1  A    between atoms: C1_1  and  N1_2 
REMARK    2  A    between atoms: C2_3  and  O2_9 
REMARK    3  A    between atoms: O2_9  and  C6_10 
ROOT
ATOM      1  N1  <0> d           1.155   1.871   0.089  0.00  0.00    -0.283 N 
ATOM      2  C2  <0> d           1.128   3.234   0.097  0.00  0.00     0.148 A 
ATOM      3  C3  <0> d          -0.093   3.877   0.185  0.00  0.00    -0.017 A 
ATOM      4  C4  <0> d          -1.251   3.112   0.263  0.00  0.00     0.012 A 
ATOM      5  N2  <0> d          -1.172   1.794   0.246  0.00  0.00    -0.206 NA
ATOM      6  C5  <0> d           0.005   1.175   0.167  0.00  0.00     0.349 A 
ATOM      7  O1  <0> d           0.041  -0.045   0.159  0.00  0.00    -0.244 OA
ATOM      8  H4  <0> d          -0.146   4.956   0.193  0.00  0.00     0.092 H 
ATOM      9  H5  <0> d          -2.215   3.595   0.333  0.00  0.00     0.115 H 
ENDROOT
BRANCH   2  10
ATOM     10  O2  <0> d           2.273   3.943   0.019  0.00  0.00    -0.341 OA
BRANCH  10  11
ATOM     11  C6  <0> d           2.167   5.362   0.147  0.00  0.00     0.012 C 
ATOM     12  H6  <0> d           3.156   5.811   0.046  0.00  0.00     0.067 H 
ATOM     13  H7  <0> d           1.511   5.750  -0.632  0.00  0.00     0.067 H 
ATOM     14  H8  <0> d           1.755   5.609   1.126  0.00  0.00     0.067 H 
ENDBRANCH  10  11
ENDBRANCH   2  10
BRANCH   1  15
ATOM     15  C1  <0> d           2.434   1.163  -0.004  0.00  0.00    -0.008 C 
ATOM     16  H1  <0> d           2.266   0.092   0.102  0.00  0.00     0.057 H 
ATOM     17  H2  <0> d           2.892   1.366  -0.972  0.00  0.00     0.057 H 
ATOM     18  H3  <0> d           3.097   1.507   0.791  0.00  0.00     0.057 H 
ENDBRANCH   1  15
TORSDOF 3
