REMARK  3 active torsions:
REMARK  status: ('A' for Active; 'I' for Inactive)
REMARK    1  A    between atoms: C1_1  and  C2_2 
REMARK    2  A    between atoms: C2_2  and  C3_3 
REMARK    3  A    between atoms: C4_4  and  C6_8 
ROOT
ATOM      1  C3  <0> d          -0.738   3.125   0.025  0.00  0.00     0.089 A 
ATOM      2  C4  <0> d           0.623   3.139   0.013  0.00  0.00     0.164 A 
ATOM      3  N1  <0> d           1.036   1.842   0.002  0.00  0.00    -0.227 NA
ATOM      4  C5  <0> d          -0.013   1.076   0.008  0.00  0.00     0.104 A 
ATOM      5  O1  <0> d          -1.116   1.837   0.017  0.00  0.00    -0.306 OA
ATOM      6  H6  <0> d           0.002  -0.004   0.002  0.00  0.00     0.155 H 
ENDROOT
BRANCH   1   7
ATOM      7  C2  <0> d          -1.648   4.326   0.040  0.00  0.00    -0.021 C 
ATOM      8  H4  <0> d          -2.572   4.076   0.561  0.00  0.00     0.042 H 
ATOM      9  H5  <0> d          -1.153   5.151   0.553  0.00  0.00     0.042 H 
BRANCH   7  10
ATOM     10  C1  <0> d          -1.969   4.740  -1.398  0.00  0.00    -0.071 C 
ATOM     11  H1  <0> d          -2.627   5.609  -1.387  0.00  0.00     0.028 H 
ATOM     12  H2  <0> d          -1.045   4.990  -1.919  0.00  0.00     0.028 H 
ATOM     13  H3  <0> d          -2.464   3.916  -1.911  0.00  0.00     0.028 H 
ENDBRANCH   7  10
ENDBRANCH   1   7
BRANCH   2  14
ATOM     14  C6  <0> d           1.486   4.332   0.010  0.00  0.00     0.231 C 
ATOM     15  O2  <0> d           0.989   5.441   0.020  0.00  0.00    -0.643 OA
ATOM     16  O3  <0> d           2.827   4.195  -0.004  0.00  0.00    -0.643 OA
ENDBRANCH   2  14
TORSDOF 3
