REMARK  4 active torsions:
REMARK  status: ('A' for Active; 'I' for Inactive)
REMARK    1  A    between atoms: C1_1  and  C2_2 
REMARK    2  A    between atoms: C2_2  and  C3_3 
REMARK    3  A    between atoms: C3_3  and  C4_5 
REMARK    4  A    between atoms: C3_3  and  N1_6 
ROOT
ATOM      1  C3  <0> d          -0.019   1.526   0.010  0.00  0.00     0.032 C 
ATOM      2  H1  <0> d           1.004   1.903   0.003  0.00  0.00     0.075 H 
ENDROOT
BRANCH   1   3
ATOM      3  C2  <0> d           0.002  -0.004   0.002  0.00  0.00    -0.048 C 
ATOM      4  H5  <0> d           0.450  -0.366   0.927  0.00  0.00     0.035 H 
ATOM      5  H6  <0> d          -1.018  -0.381  -0.080  0.00  0.00     0.035 H 
BRANCH   3   6
ATOM      6  C1  <0> d           0.825  -0.496  -1.190  0.00  0.00    -0.075 C 
ATOM      7  H2  <0> d           0.377  -0.134  -2.115  0.00  0.00     0.027 H 
ATOM      8  H3  <0> d           1.845  -0.120  -1.108  0.00  0.00     0.027 H 
ATOM      9  H4  <0> d           0.840  -1.586  -1.196  0.00  0.00     0.027 H 
ENDBRANCH   3   6
ENDBRANCH   1   3
BRANCH   1  10
ATOM     10  C4  <0> d          -0.759   2.033  -1.229  0.00  0.00    -0.055 C 
ATOM     11  H7  <0> d          -1.781   1.655  -1.221  0.00  0.00     0.030 H 
ATOM     12  H8  <0> d          -0.773   3.123  -1.223  0.00  0.00     0.030 H 
ATOM     13  H9  <0> d          -0.248   1.681  -2.126  0.00  0.00     0.030 H 
ENDBRANCH   1  10
BRANCH   1  14
ATOM     14  N1  <0> d          -0.704   1.998   1.216  0.00  0.00    -0.258 N 
ATOM     15  N3  <0> d          -0.108   2.373   2.431  0.00  0.00    -0.164 NA
ATOM     16  C6  <0> d          -1.077   2.729   3.233  0.00  0.00     0.107 A 
ATOM     17  N2  <0> d          -2.239   2.599   2.593  0.00  0.00    -0.234 NA
ATOM     18  H11 <0> d          -0.956   3.072   4.250  0.00  0.00     0.149 H 
ATOM     19  C5  <0> d          -2.029   2.165   1.376  0.00  0.00     0.084 A 
ATOM     20  H10 <0> d          -2.787   1.972   0.632  0.00  0.00     0.146 H 
ENDBRANCH   1  14
TORSDOF 4
