REMARK  1 active torsions:
REMARK  status: ('A' for Active; 'I' for Inactive)
REMARK    1  A    between atoms: C5_6  and  C6_7 
ROOT
ATOM      1  C1  <0> d          -0.017   1.383   0.010  0.00  0.00    -0.054 A 
ATOM      2  C2  <0> d           1.180   2.074   0.002  0.00  0.00     0.006 A 
ATOM      3  N1  <0> d           2.331   1.430  -0.013  0.00  0.00    -0.233 NA
ATOM      4  C3  <0> d           2.388   0.111  -0.021  0.00  0.00     0.210 A 
ATOM      5  C4  <0> d           1.229  -0.647  -0.013  0.00  0.00    -0.016 A 
ATOM      6  C5  <0> d           0.002  -0.004   0.002  0.00  0.00     0.011 A 
ATOM      7  F3  <0> d           3.590  -0.506  -0.036  0.00  0.00    -0.184 F 
ATOM      8  H1  <0> d          -0.956   1.916   0.026  0.00  0.00     0.086 H 
ATOM      9  H2  <0> d           1.172   3.154   0.008  0.00  0.00     0.114 H 
ATOM     10  H3  <0> d           1.281  -1.726  -0.020  0.00  0.00     0.091 H 
ENDROOT
BRANCH   6  11
ATOM     11  C6  <0> d          -1.282  -0.793   0.011  0.00  0.00     0.234 C 
ATOM     12  F1  <0> d          -1.075  -2.014   0.661  0.00  0.00    -0.209 F 
ATOM     13  F2  <0> d          -2.271  -0.067   0.684  0.00  0.00    -0.209 F 
ATOM     14  H4  <0> d          -1.602  -0.977  -1.015  0.00  0.00     0.153 H 
ENDBRANCH   6  11
TORSDOF 1
