REMARK  5 active torsions:
REMARK  status: ('A' for Active; 'I' for Inactive)
REMARK    1  A    between atoms: C1_1  and  C2_2 
REMARK    2  A    between atoms: C2_2  and  C3_3 
REMARK    3  A    between atoms: C2_2  and  N1_4 
REMARK    4  A    between atoms: C5_6  and  C8_11 
REMARK    5  A    between atoms: C8_11  and  O2_12 
ROOT
ATOM      1  N1  <0> d          -0.698   1.558   1.213  0.00  0.00    -0.348 N 
ATOM      2  C4  <0> d          -1.269   0.678   2.240  0.00  0.00     0.004 C 
ATOM      3  C5  <0> d          -2.237   1.567   3.052  0.00  0.00    -0.010 C 
ATOM      4  H1  <0> d          -2.220   1.298   4.109  0.00  0.00     0.046 H 
ATOM      5  C6  <0> d          -1.637   2.974   2.829  0.00  0.00     0.016 C 
ATOM      6  C7  <0> d          -0.881   2.853   1.524  0.00  0.00     0.220 C 
ATOM      7  O1  <0> d          -0.497   3.789   0.854  0.00  0.00    -0.273 OA
ATOM      8  H9  <0> d          -1.812  -0.143   1.773  0.00  0.00     0.065 H 
ATOM      9  H10 <0> d          -0.481   0.290   2.885  0.00  0.00     0.065 H 
ATOM     10  H11 <0> d          -2.429   3.718   2.746  0.00  0.00     0.048 H 
ATOM     11  H12 <0> d          -0.956   3.232   3.640  0.00  0.00     0.048 H 
ENDROOT
BRANCH   1  12
ATOM     12  C2  <0> d          -0.013   1.086   0.008  0.00  0.00     0.007 C 
ATOM     13  H5  <0> d           0.002  -0.004   0.002  0.00  0.00     0.071 H 
BRANCH  12  14
ATOM     14  C1  <0> d           1.423   1.615  -0.003  0.00  0.00    -0.057 C 
ATOM     15  H2  <0> d           1.408   2.705   0.003  0.00  0.00     0.030 H 
ATOM     16  H3  <0> d           1.950   1.254   0.880  0.00  0.00     0.030 H 
ATOM     17  H4  <0> d           1.933   1.264  -0.900  0.00  0.00     0.030 H 
ENDBRANCH  12  14
BRANCH  12  18
ATOM     18  C3  <0> d          -0.753   1.593  -1.232  0.00  0.00    -0.057 C 
ATOM     19  H6  <0> d          -1.775   1.215  -1.224  0.00  0.00     0.030 H 
ATOM     20  H7  <0> d          -0.767   2.683  -1.226  0.00  0.00     0.030 H 
ATOM     21  H8  <0> d          -0.242   1.241  -2.128  0.00  0.00     0.030 H 
ENDBRANCH  12  18
ENDBRANCH   1  12
BRANCH   3  22
ATOM     22  C8  <0> d          -3.659   1.482   2.492  0.00  0.00     0.022 C 
ATOM     23  H13 <0> d          -3.679   1.901   1.486  0.00  0.00     0.074 H 
ATOM     24  H14 <0> d          -3.974   0.439   2.458  0.00  0.00     0.074 H 
BRANCH  22  25
ATOM     25  O2  <0> d          -4.547   2.220   3.333  0.00  0.00    -0.400 OA
ATOM     26  H15 <0> d          -5.468   2.210   3.038  0.00  0.00     0.209 HD
ENDBRANCH  22  25
ENDBRANCH   3  22
TORSDOF 5
