REMARK  3 active torsions:
REMARK  status: ('A' for Active; 'I' for Inactive)
REMARK    1  A    between atoms: C1_1  and  C2_2 
REMARK    2  A    between atoms: C2_2  and  C3_3 
REMARK    3  A    between atoms: C3_3  and  C4_4 
ROOT
ATOM      1  C4  <0> d          -1.413  -2.041   0.005  0.00  0.00    -0.057 A 
ATOM      2  C5  <0> d          -1.409  -2.723  -1.205  0.00  0.00    -0.075 A 
ATOM      3  C6  <0> d          -1.391  -4.099  -1.235  0.00  0.00    -0.056 A 
ATOM      4  C7  <0> d          -1.376  -4.816  -0.042  0.00  0.00     0.042 A 
ATOM      5  C8  <0> d          -1.379  -4.121   1.180  0.00  0.00    -0.008 A 
ATOM      6  C9  <0> d          -1.392  -2.724   1.187  0.00  0.00    -0.065 A 
ATOM      7  C10 <0> d          -1.360  -5.144   2.228  0.00  0.00    -0.056 A 
ATOM      8  C11 <0> d          -1.347  -6.337   1.612  0.00  0.00    -0.022 A 
ATOM      9  N1  <0> d          -1.357  -6.161   0.255  0.00  0.00    -0.365 N 
ATOM     10  H1  <0> d          -1.350  -6.876  -0.400  0.00  0.00     0.165 HD
ATOM     11  H9  <0> d          -1.421  -2.168  -2.131  0.00  0.00     0.084 H 
ATOM     12  H10 <0> d          -1.389  -4.621  -2.180  0.00  0.00     0.087 H 
ATOM     13  H11 <0> d          -1.390  -2.187   2.124  0.00  0.00     0.085 H 
ATOM     14  H12 <0> d          -1.357  -4.972   3.294  0.00  0.00     0.086 H 
ATOM     15  H13 <0> d          -1.333  -7.293   2.113  0.00  0.00     0.111 H 
ENDROOT
BRANCH   1  16
ATOM     16  C3  <0> d          -1.433  -0.534   0.013  0.00  0.00    -0.041 C 
ATOM     17  H7  <0> d          -1.944  -0.182   0.910  0.00  0.00     0.040 H 
ATOM     18  H8  <0> d          -1.960  -0.173  -0.870  0.00  0.00     0.040 H 
BRANCH  16  19
ATOM     19  C2  <0> d           0.002  -0.004   0.002  0.00  0.00    -0.065 C 
ATOM     20  H5  <0> d           0.512  -0.356  -0.895  0.00  0.00     0.032 H 
ATOM     21  H6  <0> d           0.529  -0.365   0.885  0.00  0.00     0.032 H 
BRANCH  19  22
ATOM     22  C1  <0> d          -0.019   1.526   0.010  0.00  0.00    -0.076 C 
ATOM     23  H2  <0> d           1.004   1.903   0.003  0.00  0.00     0.027 H 
ATOM     24  H3  <0> d          -0.546   1.887  -0.873  0.00  0.00     0.027 H 
ATOM     25  H4  <0> d          -0.529   1.877   0.907  0.00  0.00     0.027 H 
ENDBRANCH  19  22
ENDBRANCH  16  19
ENDBRANCH   1  16
TORSDOF 3
