REMARK  4 active torsions:
REMARK  status: ('A' for Active; 'I' for Inactive)
REMARK    1  A    between atoms: C1_1  and  C2_2 
REMARK    2  A    between atoms: C6_6  and  C8_9 
REMARK    3  A    between atoms: C7_7  and  O1_8 
REMARK    4  A    between atoms: C8_9  and  C9_10 
ROOT
ATOM      1  C2  <0> d           2.396   0.022  -0.021  0.00  0.00    -0.028 A 
ATOM      2  C3  <0> d           1.207  -0.681  -0.013  0.00  0.00    -0.074 A 
ATOM      3  C4  <0> d           0.002  -0.004   0.002  0.00  0.00    -0.082 A 
ATOM      4  C5  <0> d          -0.017   1.379   0.010  0.00  0.00    -0.074 A 
ATOM      5  C6  <0> d           1.169   2.087   0.002  0.00  0.00    -0.021 A 
ATOM      6  C7  <0> d           2.380   1.409  -0.013  0.00  0.00     0.078 A 
ATOM      7  H4  <0> d           1.219  -1.761  -0.018  0.00  0.00     0.084 H 
ATOM      8  H5  <0> d          -0.926  -0.556   0.008  0.00  0.00     0.083 H 
ATOM      9  H6  <0> d          -0.960   1.905   0.017  0.00  0.00     0.084 H 
ENDROOT
BRANCH   5  10
ATOM     10  C8  <0> d           1.148   3.594   0.010  0.00  0.00    -0.024 C 
ATOM     11  H8  <0> d           0.216   3.942   0.455  0.00  0.00     0.046 H 
ATOM     12  H9  <0> d           1.990   3.966   0.593  0.00  0.00     0.046 H 
BRANCH  10  13
ATOM     13  C9  <0> d           1.252   4.105  -1.404  0.00  0.00    -0.108 C 
ATOM     14  C10 <0> d           0.345   4.926  -1.871  0.00  0.00    -0.124 C 
ATOM     15  H11 <0> d          -0.477   5.237  -1.244  0.00  0.00     0.066 H 
ATOM     16  H12 <0> d           0.419   5.293  -2.885  0.00  0.00     0.066 H 
ATOM     17  H10 <0> d           2.074   3.794  -2.032  0.00  0.00     0.076 H 
ENDBRANCH  10  13
ENDBRANCH   5  10
BRANCH   6  18
ATOM     18  O1  <0> d           3.548   2.104  -0.021  0.00  0.00    -0.360 OA
ATOM     19  H7  <0> d           3.878   2.309  -0.906  0.00  0.00     0.217 HD
ENDBRANCH   6  18
BRANCH   1  20
ATOM     20  C1  <0> d           3.710  -0.717  -0.037  0.00  0.00    -0.049 C 
ATOM     21  H1  <0> d           4.016  -0.890  -1.068  0.00  0.00     0.033 H 
ATOM     22  H2  <0> d           4.468  -0.121   0.473  0.00  0.00     0.033 H 
ATOM     23  H3  <0> d           3.595  -1.673   0.474  0.00  0.00     0.033 H 
ENDBRANCH   1  20
TORSDOF 4
