REMARK  1 active torsions:
REMARK  status: ('A' for Active; 'I' for Inactive)
REMARK    1  A    between atoms: C1_1  and  N1_2 
ROOT
ATOM      1  N1  <0> d           0.002  -0.004   0.002  0.00  0.00    -0.329 N 
ATOM      2  C2  <0> d          -0.006  -0.669  -1.182  0.00  0.00    -0.018 A 
ATOM      3  C3  <0> d           0.017  -2.022  -1.215  0.00  0.00    -0.068 A 
ATOM      4  C4  <0> d           0.038  -2.751  -0.017  0.00  0.00    -0.076 A 
ATOM      5  C5  <0> d           0.041  -2.081   1.171  0.00  0.00    -0.017 A 
ATOM      6  C6  <0> d           0.022  -0.676   1.169  0.00  0.00     0.246 A 
ATOM      7  O1  <0> d           0.024  -0.064   2.225  0.00  0.00    -0.268 OA
ATOM      8  H4  <0> d          -0.026  -0.112  -2.107  0.00  0.00     0.111 H 
ATOM      9  H5  <0> d           0.014  -2.539  -2.163  0.00  0.00     0.085 H 
ATOM     10  H6  <0> d           0.052  -3.830  -0.036  0.00  0.00     0.083 H 
ATOM     11  H7  <0> d           0.057  -2.625   2.104  0.00  0.00     0.092 H 
ENDROOT
BRANCH   1  12
ATOM     12  C1  <0> d          -0.018   1.461   0.010  0.00  0.00    -0.012 C 
ATOM     13  H1  <0> d           1.005   1.838   0.002  0.00  0.00     0.057 H 
ATOM     14  H2  <0> d          -0.545   1.822  -0.873  0.00  0.00     0.057 H 
ATOM     15  H3  <0> d          -0.528   1.812   0.907  0.00  0.00     0.057 H 
ENDBRANCH   1  12
TORSDOF 1
