REMARK  2 active torsions:
REMARK  status: ('A' for Active; 'I' for Inactive)
REMARK    1  A    between atoms: C1_1  and  C2_2 
REMARK    2  A    between atoms: C2_2  and  C7_9 
ROOT
ATOM      1  C2  <0> d           1.309   2.075   0.001  0.00  0.00     0.041 C 
ATOM      2  C3  <0> d           2.179   1.485  -1.115  0.00  0.00    -0.048 C 
ATOM      3  C4  <0> d           2.245  -0.035  -0.944  0.00  0.00    -0.043 C 
ATOM      4  C5  <0> d           0.831  -0.617  -1.025  0.00  0.00     0.029 C 
ATOM      5  O1  <0> d           0.002  -0.004   0.002  0.00  0.00    -0.321 OA
ATOM      6  C6  <0> d          -0.016   1.345   0.009  0.00  0.00     0.266 C 
ATOM      7  O2  <0> d          -1.061   1.952   0.018  0.00  0.00    -0.264 OA
ATOM      8  H4  <0> d           3.184   1.903  -1.054  0.00  0.00     0.035 H 
ATOM      9  H5  <0> d           1.743   1.724  -2.085  0.00  0.00     0.035 H 
ATOM     10  H6  <0> d           2.681  -0.273   0.027  0.00  0.00     0.036 H 
ATOM     11  H7  <0> d           2.861  -0.464  -1.734  0.00  0.00     0.036 H 
ATOM     12  H8  <0> d           0.871  -1.695  -0.865  0.00  0.00     0.075 H 
ATOM     13  H9  <0> d           0.407  -0.410  -2.007  0.00  0.00     0.075 H 
ENDROOT
BRANCH   1  14
ATOM     14  C1  <0> d           1.074   3.565  -0.262  0.00  0.00    -0.060 C 
ATOM     15  H1  <0> d           0.440   3.976   0.523  0.00  0.00     0.029 H 
ATOM     16  H2  <0> d           2.031   4.087  -0.267  0.00  0.00     0.029 H 
ATOM     17  H3  <0> d           0.586   3.691  -1.228  0.00  0.00     0.029 H 
ENDBRANCH   1  14
BRANCH   1  18
ATOM     18  C7  <0> d           2.007   1.893   1.350  0.00  0.00    -0.060 C 
ATOM     19  H10 <0> d           2.180   0.832   1.528  0.00  0.00     0.029 H 
ATOM     20  H11 <0> d           2.961   2.420   1.340  0.00  0.00     0.029 H 
ATOM     21  H12 <0> d           1.377   2.296   2.143  0.00  0.00     0.029 H 
ENDBRANCH   1  18
TORSDOF 2
