REMARK  1 active torsions:
REMARK  status: ('A' for Active; 'I' for Inactive)
REMARK    1  A    between atoms: C1_1  and  C2_2 
ROOT
ATOM      1  C2  <0> d          -0.018   1.498   0.010  0.00  0.00     0.020 C 
ATOM      2  H1  <0> d          -0.531   1.848   0.906  0.00  0.00     0.054 H 
ATOM      3  C3  <0> d           1.414   2.038  -0.001  0.00  0.00    -0.052 C 
ATOM      4  C4  <0> d           2.216   1.308   1.084  0.00  0.00    -0.050 C 
ATOM      5  C5  <0> d           2.369  -0.158   0.676  0.00  0.00    -0.005 C 
ATOM      6  N1  <0> d           1.075  -0.728   0.323  0.00  0.00    -0.361 N 
ATOM      7  C6  <0> d           0.002  -0.004   0.002  0.00  0.00     0.221 C 
ATOM      8  O1  <0> d          -1.012  -0.590  -0.314  0.00  0.00    -0.273 OA
ATOM      9  H5  <0> d           1.867   1.857  -0.975  0.00  0.00     0.034 H 
ATOM     10  H6  <0> d           1.404   3.108   0.208  0.00  0.00     0.034 H 
ATOM     11  H7  <0> d           1.686   1.369   2.034  0.00  0.00     0.035 H 
ATOM     12  H8  <0> d           3.200   1.766   1.181  0.00  0.00     0.035 H 
ATOM     13  H9  <0> d           2.797  -0.720   1.506  0.00  0.00     0.064 H 
ATOM     14  H10 <0> d           3.037  -0.221  -0.183  0.00  0.00     0.064 H 
ATOM     15  H11 <0> d           0.989  -1.694   0.322  0.00  0.00     0.162 HD
ENDROOT
BRANCH   1  16
ATOM     16  C1  <0> d          -0.761   2.003  -1.228  0.00  0.00    -0.065 C 
ATOM     17  H2  <0> d          -1.784   1.625  -1.218  0.00  0.00     0.028 H 
ATOM     18  H3  <0> d          -0.777   3.092  -1.223  0.00  0.00     0.028 H 
ATOM     19  H4  <0> d          -0.253   1.650  -2.126  0.00  0.00     0.028 H 
ENDBRANCH   1  16
TORSDOF 1
