REMARK  5 active torsions:
REMARK  status: ('A' for Active; 'I' for Inactive)
REMARK    1  A    between atoms: C1_1  and  O1_2 
REMARK    2  A    between atoms: O1_2  and  C2_3 
REMARK    3  A    between atoms: C2_3  and  C3_4 
REMARK    4  A    between atoms: C2_3  and  O3_9 
REMARK    5  A    between atoms: O3_9  and  C7_10 
ROOT
ATOM      1  C2  <0> d           1.432   2.317  -0.397  0.00  0.00     0.176 C 
ATOM      2  H4  <0> d           2.010   2.068  -1.287  0.00  0.00     0.140 H 
ENDROOT
BRANCH   1   3
ATOM      3  O1  <0> d           0.179   1.631  -0.435  0.00  0.00    -0.360 OA
BRANCH   3   4
ATOM      4  C1  <0> d           0.267   0.288  -0.915  0.00  0.00     0.007 C 
ATOM      5  H1  <0> d           0.793   0.277  -1.870  0.00  0.00     0.066 H 
ATOM      6  H2  <0> d           0.811  -0.321  -0.194  0.00  0.00     0.066 H 
ATOM      7  H3  <0> d          -0.737  -0.117  -1.049  0.00  0.00     0.066 H 
ENDBRANCH   3   4
ENDBRANCH   1   3
BRANCH   1   8
ATOM      8  C3  <0> d           1.188   3.804  -0.357  0.00  0.00     0.107 A 
ATOM      9  O2  <0> d          -0.013   4.404  -0.362  0.00  0.00    -0.322 OA
ATOM     10  C6  <0> d           0.151   5.736  -0.314  0.00  0.00     0.019 A 
ATOM     11  C5  <0> d           1.469   6.001  -0.288  0.00  0.00    -0.059 A 
ATOM     12  H7  <0> d          -0.642   6.470  -0.304  0.00  0.00     0.123 H 
ATOM     13  C4  <0> d           2.138   4.756  -0.316  0.00  0.00    -0.048 A 
ATOM     14  H6  <0> d           1.929   6.978  -0.253  0.00  0.00     0.086 H 
ATOM     15  H5  <0> d           3.207   4.599  -0.305  0.00  0.00     0.087 H 
ENDBRANCH   1   8
BRANCH   1  16
ATOM     16  O3  <0> d           2.157   1.922   0.769  0.00  0.00    -0.360 OA
BRANCH  16  17
ATOM     17  C7  <0> d           2.796   0.649   0.651  0.00  0.00     0.007 C 
ATOM     18  H8  <0> d           3.583   0.567   1.400  0.00  0.00     0.066 H 
ATOM     19  H9  <0> d           2.062  -0.142   0.809  0.00  0.00     0.066 H 
ATOM     20  H10 <0> d           3.229   0.549  -0.344  0.00  0.00     0.066 H 
ENDBRANCH  16  17
ENDBRANCH   1  16
TORSDOF 5
