REMARK  2 active torsions:
REMARK  status: ('A' for Active; 'I' for Inactive)
REMARK    1  A    between atoms: C1_1  and  C2_2 
REMARK    2  A    between atoms: C2_2  and  C3_3 
ROOT
ATOM      1  C3  <0> d          -0.017   1.412   0.010  0.00  0.00     0.027 A 
ATOM      2  C4  <0> d           1.162   2.076   0.002  0.00  0.00     0.015 A 
ATOM      3  N1  <0> d           2.324   1.367  -0.012  0.00  0.00    -0.255 NA
ATOM      4  H1  <0> d           1.198  -1.746  -0.019  0.00  0.00     0.169 HD
ATOM      5  C5  <0> d           2.306   0.021  -0.020  0.00  0.00     0.066 A 
ATOM      6  N2  <0> d           1.184  -0.646  -0.013  0.00  0.00    -0.318 N 
ATOM      7  C6  <0> d           0.002  -0.004   0.002  0.00  0.00     0.254 A 
ATOM      8  O1  <0> d          -1.043  -0.635   0.008  0.00  0.00    -0.268 OA
ATOM      9  H7  <0> d           1.172   3.076   0.007  0.00  0.00     0.115 H 
ATOM     10  H8  <0> d           3.165  -0.490  -0.031  0.00  0.00     0.143 H 
ENDROOT
BRANCH   1  11
ATOM     11  C2  <0> d          -1.323   2.164   0.026  0.00  0.00    -0.038 C 
ATOM     12  H5  <0> d          -1.153   3.188   0.390  0.00  0.00     0.039 H 
ATOM     13  H6  <0> d          -2.033   1.652   0.693  0.00  0.00     0.039 H 
BRANCH  11  14
ATOM     14  C1  <0> d          -1.900   2.215  -1.390  0.00  0.00    -0.072 C 
ATOM     15  H2  <0> d          -2.854   2.763  -1.377  0.00  0.00     0.028 H 
ATOM     16  H3  <0> d          -2.071   1.191  -1.753  0.00  0.00     0.028 H 
ATOM     17  H4  <0> d          -1.191   2.727  -2.057  0.00  0.00     0.028 H 
ENDBRANCH  11  14
ENDBRANCH   1  11
TORSDOF 2
