REMARK  2 active torsions:
REMARK  status: ('A' for Active; 'I' for Inactive)
REMARK    1  A    between atoms: C2_2  and  O1_10 
REMARK    2  A    between atoms: C5_5  and  N1_8 
ROOT
ATOM      1  C1  <0> d           0.002  -0.004   0.002  0.00  0.00    -0.011 A 
ATOM      2  C2  <0> d          -0.017   1.383   0.010  0.00  0.00     0.071 A 
ATOM      3  C3  <0> d           1.174   2.094   0.002  0.00  0.00    -0.011 A 
ATOM      4  C4  <0> d           2.382   1.420  -0.013  0.00  0.00     0.148 A 
ATOM      5  C5  <0> d           2.403   0.031  -0.021  0.00  0.00     0.104 A 
ATOM      6  C6  <0> d           1.209  -0.680  -0.014  0.00  0.00     0.148 A 
ATOM      7  F1  <0> d           1.227  -2.031  -0.021  0.00  0.00    -0.203 F 
ATOM      8  F2  <0> d           3.542   2.113  -0.020  0.00  0.00    -0.203 F 
ATOM      9  H1  <0> d          -0.926  -0.556   0.008  0.00  0.00     0.092 H 
ATOM     10  H2  <0> d           1.158   3.174   0.008  0.00  0.00     0.092 H 
ENDROOT
BRANCH   5  11
ATOM     11  N1  <0> d           3.627  -0.653  -0.036  0.00  0.00    -0.394 N 
ATOM     12  H3  <0> d           3.641  -1.623  -0.042  0.00  0.00     0.156 HD
ATOM     13  H4  <0> d           4.460  -0.156  -0.042  0.00  0.00     0.156 HD
ENDBRANCH   5  11
BRANCH   2  14
ATOM     14  O1  <0> d          -1.204   2.046   0.019  0.00  0.00    -0.361 OA
ATOM     15  H5  <0> d          -1.543   2.233   0.905  0.00  0.00     0.217 HD
ENDBRANCH   2  14
TORSDOF 2
