REMARK  0 active torsions:
REMARK  status: ('A' for Active; 'I' for Inactive)
ROOT
ATOM      1  C1  <0> d          -2.808   2.074   0.118  0.00  0.00     0.021 C 
ATOM      2  C2  <0> d          -2.241   1.448  -1.120  0.00  0.00     0.038 C 
ATOM      3  H1  <0> d          -2.797   2.030  -1.870  0.00  0.00     0.056 H 
ATOM      4  C3  <0> d          -0.715   1.574  -1.260  0.00  0.00    -0.011 C 
ATOM      5  H2  <0> d          -0.368   2.598  -1.464  0.00  0.00     0.046 H 
ATOM      6  C4  <0> d          -0.013   1.086   0.008  0.00  0.00     0.001 C 
ATOM      7  N1  <0> d          -0.654   1.535   1.225  0.00  0.00    -0.361 N 
ATOM      8  C5  <0> d          -1.933   1.888   1.320  0.00  0.00     0.218 C 
ATOM      9  O1  <0> d          -2.409   2.067   2.421  0.00  0.00    -0.274 OA
ATOM     10  C6  <0> d          -0.479   0.452  -2.321  0.00  0.00     0.001 C 
ATOM     11  N2  <0> d          -1.511  -0.554  -2.024  0.00  0.00    -0.360 N 
ATOM     12  C7  <0> d          -2.522  -0.014  -1.304  0.00  0.00     0.222 C 
ATOM     13  O2  <0> d          -3.490  -0.610  -0.880  0.00  0.00    -0.273 OA
ATOM     14  H3  <0> d          -3.790   1.615   0.306  0.00  0.00     0.048 H 
ATOM     15  H4  <0> d          -2.937   3.148  -0.079  0.00  0.00     0.048 H 
ATOM     16  H5  <0> d          -0.005  -0.014   0.023  0.00  0.00     0.064 H 
ATOM     17  H6  <0> d           1.022   1.459   0.021  0.00  0.00     0.064 H 
ATOM     18  H7  <0> d          -0.077   1.602   2.159  0.00  0.00     0.162 HD
ATOM     19  H8  <0> d          -0.594   0.873  -3.331  0.00  0.00     0.064 H 
ATOM     20  H9  <0> d           0.536   0.046  -2.206  0.00  0.00     0.064 H 
ATOM     21  H10 <0> d          -1.391  -1.588  -2.382  0.00  0.00     0.162 HD
ENDROOT
TORSDOF 0
