REMARK  2 active torsions:
REMARK  status: ('A' for Active; 'I' for Inactive)
REMARK    1  A    between atoms: C1_1  and  C2_2 
REMARK    2  A    between atoms: C2_2  and  C3_3 
ROOT
ATOM      1  C3  <0> d          -0.132   3.793   0.024  0.00  0.00     0.105 A 
ATOM      2  C4  <0> d           1.107   3.179   0.009  0.00  0.00    -0.053 A 
ATOM      3  C5  <0> d           1.174   1.794   0.001  0.00  0.00    -0.080 A 
ATOM      4  C6  <0> d          -0.013   1.076   0.008  0.00  0.00    -0.066 A 
ATOM      5  C7  <0> d          -1.214   1.759   0.017  0.00  0.00     0.003 A 
ATOM      6  N1  <0> d          -1.239   3.078   0.030  0.00  0.00    -0.259 NA
ATOM      7  H4  <0> d           2.010   3.770   0.004  0.00  0.00     0.086 H 
ATOM      8  H5  <0> d           2.127   1.287  -0.011  0.00  0.00     0.083 H 
ATOM      9  H6  <0> d           0.002  -0.004   0.002  0.00  0.00     0.085 H 
ATOM     10  H7  <0> d          -2.142   1.207   0.018  0.00  0.00     0.114 H 
ENDROOT
BRANCH   1  11
ATOM     11  C2  <0> d          -0.217   5.298   0.032  0.00  0.00     0.283 C 
ATOM     12  F1  <0> d           0.427   5.795   1.171  0.00  0.00    -0.200 F 
ATOM     13  F2  <0> d           0.404   5.806  -1.114  0.00  0.00    -0.200 F 
BRANCH  11  14
ATOM     14  C1  <0> d          -1.686   5.725   0.049  0.00  0.00    -0.011 C 
ATOM     15  H1  <0> d          -1.748   6.824   0.055  0.00  0.00     0.036 H 
ATOM     16  H2  <0> d          -2.174   5.325   0.950  0.00  0.00     0.036 H 
ATOM     17  H3  <0> d          -2.191   5.335  -0.847  0.00  0.00     0.036 H 
ENDBRANCH  11  14
ENDBRANCH   1  11
TORSDOF 2
