REMARK  2 active torsions:
REMARK  status: ('A' for Active; 'I' for Inactive)
REMARK    1  A    between atoms: C2_2  and  C3_3 
REMARK    2  A    between atoms: C3_3  and  C4_4 
ROOT
ATOM      1  C1  <0> d           0.018  -1.178  -0.004  0.00  0.00    -0.154 C 
ATOM      2  C2  <0> d           0.002  -0.004   0.002  0.00  0.00    -0.113 C 
ATOM      3  H1  <0> d           0.032  -2.228  -0.010  0.00  0.00     0.166 H 
ENDROOT
BRANCH   2   4
ATOM      4  C3  <0> d          -0.018   1.468   0.010  0.00  0.00     0.014 C 
ATOM      5  H2  <0> d          -0.545   1.829  -0.873  0.00  0.00     0.059 H 
ATOM      6  H3  <0> d          -0.528   1.819   0.907  0.00  0.00     0.059 H 
BRANCH   4   7
ATOM      7  C4  <0> d           1.396   1.989  -0.001  0.00  0.00    -0.047 A 
ATOM      8  C9  <0> d           2.033   2.235  -1.203  0.00  0.00    -0.076 A 
ATOM      9  C8  <0> d           3.328   2.718  -1.212  0.00  0.00    -0.082 A 
ATOM     10  H8  <0> d           1.517   2.053  -2.134  0.00  0.00     0.084 H 
ATOM     11  C7  <0> d           3.990   2.946  -0.020  0.00  0.00    -0.083 A 
ATOM     12  H7  <0> d           3.824   2.914  -2.151  0.00  0.00     0.083 H 
ATOM     13  C6  <0> d           3.355   2.695   1.182  0.00  0.00    -0.082 A 
ATOM     14  H6  <0> d           5.003   3.320  -0.028  0.00  0.00     0.083 H 
ATOM     15  C5  <0> d           2.058   2.217   1.192  0.00  0.00    -0.076 A 
ATOM     16  H5  <0> d           3.871   2.874   2.113  0.00  0.00     0.083 H 
ATOM     17  H4  <0> d           1.562   2.021   2.131  0.00  0.00     0.084 H 
ENDBRANCH   4   7
ENDBRANCH   2   4
TORSDOF 2
