REMARK  7 active torsions:
REMARK  status: ('A' for Active; 'I' for Inactive)
REMARK    1  A    between atoms: C1_1  and  C2_2 
REMARK    2  A    between atoms: C2_2  and  C3_3 
REMARK    3  A    between atoms: C3_3  and  C4_5 
REMARK    4  A    between atoms: C3_3  and  C5_6 
REMARK    5  A    between atoms: C5_6  and  C6_7 
REMARK    6  A    between atoms: C6_7  and  O2_9 
REMARK    7  A    between atoms: O2_9  and  C7_10 
ROOT
ATOM      1  C3  <0> d          -2.479   0.930   0.019  0.00  0.00    -0.050 C 
ATOM      2  H1  <0> d          -2.359   0.243   0.856  0.00  0.00     0.040 H 
ENDROOT
BRANCH   1   3
ATOM      3  C2  <0> d          -3.810   1.672   0.155  0.00  0.00    -0.065 C 
ATOM      4  H5  <0> d          -3.785   2.302   1.044  0.00  0.00     0.033 H 
ATOM      5  H6  <0> d          -3.971   2.293  -0.726  0.00  0.00     0.033 H 
BRANCH   3   6
ATOM      6  C1  <0> d          -4.949   0.658   0.280  0.00  0.00    -0.076 C 
ATOM      7  H2  <0> d          -4.973   0.028  -0.609  0.00  0.00     0.027 H 
ATOM      8  H3  <0> d          -4.787   0.037   1.161  0.00  0.00     0.027 H 
ATOM      9  H4  <0> d          -5.897   1.187   0.377  0.00  0.00     0.027 H 
ENDBRANCH   3   6
ENDBRANCH   1   3
BRANCH   1  10
ATOM     10  C4  <0> d          -2.466   0.142  -1.293  0.00  0.00    -0.072 C 
ATOM     11  H7  <0> d          -2.586   0.830  -2.130  0.00  0.00     0.028 H 
ATOM     12  H8  <0> d          -1.518  -0.386  -1.390  0.00  0.00     0.028 H 
ATOM     13  H9  <0> d          -3.284  -0.577  -1.293  0.00  0.00     0.028 H 
ENDBRANCH   1  10
BRANCH   1  14
ATOM     14  C5  <0> d          -1.329   1.940   0.019  0.00  0.00     0.019 C 
ATOM     15  H10 <0> d          -1.391   2.561   0.913  0.00  0.00     0.048 H 
ATOM     16  H11 <0> d          -1.400   2.570  -0.867  0.00  0.00     0.048 H 
BRANCH  14  17
ATOM     17  C6  <0> d          -0.014   1.204   0.009  0.00  0.00     0.258 C 
ATOM     18  O1  <0> d           0.002  -0.004   0.002  0.00  0.00    -0.265 OA
BRANCH  17  19
ATOM     19  O2  <0> d           1.139   1.891   0.001  0.00  0.00    -0.326 OA
BRANCH  19  20
ATOM     20  C7  <0> d           2.367   1.117  -0.015  0.00  0.00     0.013 C 
ATOM     21  H12 <0> d           2.392   0.493  -0.908  0.00  0.00     0.067 H 
ATOM     22  H13 <0> d           3.223   1.792  -0.019  0.00  0.00     0.067 H 
ATOM     23  H14 <0> d           2.409   0.484   0.872  0.00  0.00     0.067 H 
ENDBRANCH  19  20
ENDBRANCH  17  19
ENDBRANCH  14  17
ENDBRANCH   1  14
TORSDOF 7
