REMARK  1 active torsions:
REMARK  status: ('A' for Active; 'I' for Inactive)
REMARK    1  A    between atoms: C3_3  and  N3_10 
ROOT
ATOM      1  C1  <0> d          -0.016   1.345   0.009  0.00  0.00    -0.065 A 
ATOM      2  C2  <0> d           1.185   2.071   0.002  0.00  0.00    -0.053 A 
ATOM      3  C3  <0> d           2.378   1.404  -0.013  0.00  0.00     0.072 A 
ATOM      4  C4  <0> d           2.377  -0.011  -0.021  0.00  0.00     0.160 A 
ATOM      5  N1  <0> d           3.357  -0.904  -0.035  0.00  0.00    -0.239 NA
ATOM      6  C5  <0> d           2.831  -2.130  -0.037  0.00  0.00     0.020 A 
ATOM      7  C6  <0> d           1.484  -2.022  -0.024  0.00  0.00     0.003 A 
ATOM      8  N2  <0> d           1.187  -0.687  -0.013  0.00  0.00    -0.314 N 
ATOM      9  C7  <0> d           0.002  -0.004   0.002  0.00  0.00    -0.014 A 
ATOM     10  H1  <0> d          -0.960   1.869   0.026  0.00  0.00     0.085 H 
ATOM     11  H2  <0> d           1.167   3.151   0.007  0.00  0.00     0.087 H 
ATOM     12  H3  <0> d           3.389  -3.055  -0.048  0.00  0.00     0.117 H 
ATOM     13  H4  <0> d           0.775  -2.837  -0.022  0.00  0.00     0.114 H 
ATOM     14  H5  <0> d          -0.929  -0.551   0.008  0.00  0.00     0.112 H 
ENDROOT
BRANCH   3  15
ATOM     15  N3  <0> d           3.583   2.111  -0.021  0.00  0.00    -0.396 N 
ATOM     16  H6  <0> d           3.576   3.080  -0.016  0.00  0.00     0.156 HD
ATOM     17  H7  <0> d           4.426   1.631  -0.032  0.00  0.00     0.156 HD
ENDBRANCH   3  15
TORSDOF 1
