REMARK  4 active torsions:
REMARK  status: ('A' for Active; 'I' for Inactive)
REMARK    1  A    between atoms: C1_1  and  C2_2 
REMARK    2  A    between atoms: C2_2  and  C3_3 
REMARK    3  A    between atoms: C3_3  and  N1_4 
REMARK       I    between atoms: N1_4  and  C4_5 
REMARK    4  A    between atoms: C4_5  and  C5_7 
ROOT
ATOM      1  C5  <0> d          -1.330   1.944   0.019  0.00  0.00     0.088 C 
ATOM      2  C6  <0> d          -2.435   0.973   0.019  0.00  0.00     0.068 C 
ATOM      3  N2  <0> d          -3.289   0.223   0.019  0.00  0.00    -0.197 NA
ATOM      4  H9  <0> d          -1.392   2.565   0.913  0.00  0.00     0.069 H 
ATOM      5  H10 <0> d          -1.400   2.575  -0.867  0.00  0.00     0.069 H 
ENDROOT
BRANCH   1   6
ATOM      6  C4  <0> d          -0.014   1.209   0.009  0.00  0.00     0.230 C 
ATOM      7  N1  <0> d           1.143   1.898   0.001  0.00  0.00    -0.360 N 
ATOM      8  H8  <0> d           1.130   2.868   0.007  0.00  0.00     0.162 HD
ATOM      9  O1  <0> d           0.002  -0.004   0.002  0.00  0.00    -0.273 OA
BRANCH   7  10
ATOM     10  C3  <0> d           2.422   1.183  -0.015  0.00  0.00    -0.005 C 
ATOM     11  H6  <0> d           2.497   0.553   0.871  0.00  0.00     0.064 H 
ATOM     12  H7  <0> d           2.480   0.562  -0.909  0.00  0.00     0.064 H 
BRANCH  10  13
ATOM     13  C2  <0> d           3.571   2.193  -0.020  0.00  0.00    -0.054 C 
ATOM     14  H4  <0> d           3.497   2.824  -0.906  0.00  0.00     0.034 H 
ATOM     15  H5  <0> d           3.514   2.814   0.874  0.00  0.00     0.034 H 
BRANCH  13  16
ATOM     16  C1  <0> d           4.907   1.446  -0.037  0.00  0.00    -0.075 C 
ATOM     17  H1  <0> d           4.964   0.825  -0.931  0.00  0.00     0.027 H 
ATOM     18  H2  <0> d           5.725   2.166  -0.041  0.00  0.00     0.027 H 
ATOM     19  H3  <0> d           4.981   0.816   0.849  0.00  0.00     0.027 H 
ENDBRANCH  13  16
ENDBRANCH  10  13
ENDBRANCH   7  10
ENDBRANCH   1   6
TORSDOF 4
