REMARK  6 active torsions:
REMARK  status: ('A' for Active; 'I' for Inactive)
REMARK    1  A    between atoms: C1_1  and  C2_2 
REMARK    2  A    between atoms: C2_2  and  C3_3 
REMARK    3  A    between atoms: C3_3  and  C4_5 
REMARK    4  A    between atoms: C3_3  and  C7_8 
REMARK    5  A    between atoms: C4_5  and  C5_6 
REMARK    6  A    between atoms: C4_5  and  C6_7 
ROOT
ATOM      1  C3  <0> d           0.742  -0.511   1.242  0.00  0.00     0.033 C 
ATOM      2  H1  <0> d           1.735  -0.063   1.280  0.00  0.00     0.057 H 
ENDROOT
BRANCH   1   3
ATOM      3  C2  <0> d           0.002  -0.004   0.002  0.00  0.00    -0.056 C 
ATOM      4  H5  <0> d          -1.020  -0.381   0.010  0.00  0.00     0.033 H 
ATOM      5  H6  <0> d           0.512  -0.356  -0.895  0.00  0.00     0.033 H 
BRANCH   3   6
ATOM      6  C1  <0> d          -0.019   1.526   0.010  0.00  0.00    -0.076 C 
ATOM      7  H2  <0> d           1.004   1.903   0.003  0.00  0.00     0.027 H 
ATOM      8  H3  <0> d          -0.546   1.887  -0.873  0.00  0.00     0.027 H 
ATOM      9  H4  <0> d          -0.529   1.877   0.907  0.00  0.00     0.027 H 
ENDBRANCH   3   6
ENDBRANCH   1   3
BRANCH   1  10
ATOM     10  C4  <0> d           0.872  -2.034   1.171  0.00  0.00    -0.048 C 
ATOM     11  H7  <0> d          -0.121  -2.482   1.132  0.00  0.00     0.040 H 
BRANCH  10  12
ATOM     12  C5  <0> d           1.656  -2.421  -0.085  0.00  0.00    -0.072 C 
ATOM     13  H8  <0> d           2.649  -1.973  -0.046  0.00  0.00     0.028 H 
ATOM     14  H9  <0> d           1.748  -3.506  -0.135  0.00  0.00     0.028 H 
ATOM     15  H10 <0> d           1.128  -2.060  -0.968  0.00  0.00     0.028 H 
ENDBRANCH  10  12
BRANCH  10  16
ATOM     16  C6  <0> d           1.612  -2.541   2.410  0.00  0.00    -0.072 C 
ATOM     17  H11 <0> d           1.054  -2.265   3.305  0.00  0.00     0.028 H 
ATOM     18  H12 <0> d           1.704  -3.626   2.360  0.00  0.00     0.028 H 
ATOM     19  H13 <0> d           2.605  -2.093   2.449  0.00  0.00     0.028 H 
ENDBRANCH  10  16
ENDBRANCH   1  10
BRANCH   1  20
ATOM     20  C7  <0> d          -0.030  -0.130   2.478  0.00  0.00     0.177 C 
ATOM     21  O1  <0> d          -1.171  -0.530   2.632  0.00  0.00    -0.648 OA
ATOM     22  O2  <0> d           0.487   0.580   3.325  0.00  0.00    -0.648 OA
ENDBRANCH   1  20
TORSDOF 6
