REMARK  2 active torsions:
REMARK  status: ('A' for Active; 'I' for Inactive)
REMARK    1  A    between atoms: C1_1  and  C2_2 
REMARK    2  A    between atoms: C5_6  and  C8_13 
ROOT
ATOM      1  C2  <0> d           1.420   2.061  -0.000  0.00  0.00    -0.009 C 
ATOM      2  H1  <0> d           1.916   1.811   0.937  0.00  0.00     0.046 H 
ATOM      3  C3  <0> d          -0.019   1.527   0.010  0.00  0.00    -0.054 C 
ATOM      4  C4  <0> d           0.002  -0.004   0.002  0.00  0.00    -0.027 C 
ATOM      5  C5  <0> d           0.933  -0.507  -1.110  0.00  0.00     0.148 C 
ATOM      6  C6  <0> d           0.600   0.228  -2.398  0.00  0.00     0.296 C 
ATOM      7  O1  <0> d          -0.077  -0.176  -3.314  0.00  0.00    -0.262 OA
ATOM      8  O2  <0> d           1.230   1.422  -2.321  0.00  0.00    -0.287 OA
ATOM      9  C7  <0> d           2.150   1.380  -1.181  0.00  0.00     0.144 C 
ATOM     10  H2  <0> d           3.114   1.838  -1.401  0.00  0.00     0.130 H 
ATOM     11  O3  <0> d           2.264  -0.015  -0.814  0.00  0.00    -0.340 OA
ATOM     12  H6  <0> d          -0.547   1.887  -0.872  0.00  0.00     0.033 H 
ATOM     13  H7  <0> d          -0.530   1.878   0.907  0.00  0.00     0.033 H 
ATOM     14  H8  <0> d           0.360  -0.367   0.966  0.00  0.00     0.038 H 
ATOM     15  H9  <0> d          -1.006  -0.379  -0.174  0.00  0.00     0.038 H 
ENDROOT
BRANCH   1  16
ATOM     16  C1  <0> d           1.411   3.578  -0.198  0.00  0.00    -0.068 C 
ATOM     17  H3  <0> d           0.859   4.048   0.616  0.00  0.00     0.028 H 
ATOM     18  H4  <0> d           2.435   3.950  -0.205  0.00  0.00     0.028 H 
ATOM     19  H5  <0> d           0.931   3.818  -1.147  0.00  0.00     0.028 H 
ENDBRANCH   1  16
BRANCH   5  20
ATOM     20  C8  <0> d           0.889  -2.029  -1.260  0.00  0.00    -0.039 C 
ATOM     21  H10 <0> d          -0.126  -2.341  -1.503  0.00  0.00     0.032 H 
ATOM     22  H11 <0> d           1.565  -2.334  -2.059  0.00  0.00     0.032 H 
ATOM     23  H12 <0> d           1.199  -2.495  -0.324  0.00  0.00     0.032 H 
ENDBRANCH   5  20
TORSDOF 2
