REMARK  4 active torsions:
REMARK  status: ('A' for Active; 'I' for Inactive)
REMARK    1  A    between atoms: C1_1  and  C2_2 
REMARK    2  A    between atoms: C3_3  and  C8_9 
REMARK    3  A    between atoms: C4_4  and  C7_8 
REMARK    4  A    between atoms: C5_6  and  C6_7 
ROOT
ATOM      1  C2  <0> d          -0.718   1.572   1.248  0.00  0.00    -0.042 A 
ATOM      2  C3  <0> d          -0.009   1.809   2.411  0.00  0.00    -0.042 A 
ATOM      3  C4  <0> d          -0.674   2.246   3.508  0.00  0.00    -0.015 A 
ATOM      4  S1  <0> d          -2.354   2.335   2.911  0.00  0.00    -0.099 SA
ATOM      5  C5  <0> d          -2.056   1.788   1.238  0.00  0.00    -0.015 A 
ENDROOT
BRANCH   1   6
ATOM      6  C1  <0> d          -0.013   1.086   0.008  0.00  0.00    -0.050 C 
ATOM      7  H1  <0> d           0.002  -0.004   0.002  0.00  0.00     0.033 H 
ATOM      8  H2  <0> d           1.010   1.463   0.000  0.00  0.00     0.033 H 
ATOM      9  H3  <0> d          -0.540   1.447  -0.875  0.00  0.00     0.033 H 
ENDBRANCH   1   6
BRANCH   5  10
ATOM     10  C6  <0> d          -3.038   1.612   0.108  0.00  0.00    -0.045 C 
ATOM     11  H4  <0> d          -3.434   0.597   0.126  0.00  0.00     0.034 H 
ATOM     12  H5  <0> d          -3.855   2.323   0.223  0.00  0.00     0.034 H 
ATOM     13  H6  <0> d          -2.533   1.788  -0.842  0.00  0.00     0.034 H 
ENDBRANCH   5  10
BRANCH   2  14
ATOM     14  C8  <0> d           1.480   1.585   2.458  0.00  0.00    -0.050 C 
ATOM     15  H10 <0> d           1.995   2.504   2.176  0.00  0.00     0.033 H 
ATOM     16  H11 <0> d           1.773   1.300   3.468  0.00  0.00     0.033 H 
ATOM     17  H12 <0> d           1.750   0.790   1.763  0.00  0.00     0.033 H 
ENDBRANCH   2  14
BRANCH   3  18
ATOM     18  C7  <0> d          -0.135   2.572   4.877  0.00  0.00    -0.045 C 
ATOM     19  H7  <0> d           0.151   3.623   4.914  0.00  0.00     0.034 H 
ATOM     20  H8  <0> d          -0.903   2.378   5.626  0.00  0.00     0.034 H 
ATOM     21  H9  <0> d           0.737   1.951   5.082  0.00  0.00     0.034 H 
ENDBRANCH   3  18
TORSDOF 4
