REMARK  1 active torsions:
REMARK  status: ('A' for Active; 'I' for Inactive)
REMARK    1  A    between atoms: C5_8  and  C6_10 
ROOT
ATOM      1  C1  <0> d          -0.019   1.543   0.011  0.00  0.00    -0.039 C 
ATOM      2  C2  <0> d           1.492   1.889  -0.002  0.00  0.00     0.021 C 
ATOM      3  O1  <0> d           2.078   0.869   0.834  0.00  0.00    -0.385 OA
ATOM      4  C3  <0> d           1.407  -0.364   0.524  0.00  0.00     0.056 A 
ATOM      5  H1  <0> d           1.997  -1.149   0.050  0.00  0.00     0.085 H 
ATOM      6  C4  <0> d           0.002  -0.004   0.002  0.00  0.00    -0.011 A 
ATOM      7  H2  <0> d          -0.451  -0.514  -0.848  0.00  0.00     0.045 H 
ATOM      8  C5  <0> d           0.190  -0.754   1.367  0.00  0.00     0.061 A 
ATOM      9  H3  <0> d          -0.086  -1.808   1.395  0.00  0.00     0.061 H 
ATOM     10  H4  <0> d          -0.496   1.920   0.915  0.00  0.00     0.036 H 
ATOM     11  H5  <0> d          -0.513   1.930  -0.881  0.00  0.00     0.036 H 
ATOM     12  H6  <0> d           1.890   1.832  -1.015  0.00  0.00     0.074 H 
ATOM     13  H7  <0> d           1.663   2.879   0.423  0.00  0.00     0.074 H 
ENDROOT
BRANCH   8  14
ATOM     14  C6  <0> d          -0.044   0.012   2.644  0.00  0.00     0.180 C 
ATOM     15  O2  <0> d           0.858   0.138   3.453  0.00  0.00    -0.648 OA
ATOM     16  O3  <0> d          -1.137   0.505   2.867  0.00  0.00    -0.648 OA
ENDBRANCH   8  14
TORSDOF 1
