REMARK  1 active torsions:
REMARK  status: ('A' for Active; 'I' for Inactive)
REMARK    1  A    between atoms: C1_1  and  C2_2 
ROOT
ATOM      1  C2  <0> d          -0.013   1.086   0.008  0.00  0.00     0.045 C 
ATOM      2  H1  <0> d           0.002  -0.004   0.002  0.00  0.00     0.083 H 
ATOM      3  C3  <0> d          -0.672   1.618  -1.284  0.00  0.00    -0.032 C 
ATOM      4  C4  <0> d           0.559   1.840  -2.193  0.00  0.00     0.018 C 
ATOM      5  C5  <0> d           1.702   2.031  -1.220  0.00  0.00     0.259 C 
ATOM      6  O1  <0> d           2.780   2.500  -1.501  0.00  0.00    -0.265 OA
ATOM      7  O2  <0> d           1.345   1.607  -0.002  0.00  0.00    -0.316 OA
ATOM      8  H5  <0> d          -1.346   0.876  -1.713  0.00  0.00     0.037 H 
ATOM      9  H6  <0> d          -1.194   2.557  -1.098  0.00  0.00     0.037 H 
ATOM     10  H7  <0> d           0.426   2.731  -2.807  0.00  0.00     0.048 H 
ATOM     11  H8  <0> d           0.734   0.965  -2.821  0.00  0.00     0.048 H 
ENDROOT
BRANCH   1  12
ATOM     12  C1  <0> d          -0.766   1.597   1.238  0.00  0.00    -0.052 C 
ATOM     13  H2  <0> d          -0.763   2.687   1.238  0.00  0.00     0.030 H 
ATOM     14  H3  <0> d          -1.794   1.237   1.209  0.00  0.00     0.030 H 
ATOM     15  H4  <0> d          -0.278   1.232   2.141  0.00  0.00     0.030 H 
ENDBRANCH   1  12
TORSDOF 1
