REMARK  2 active torsions:
REMARK  status: ('A' for Active; 'I' for Inactive)
REMARK    1  A    between atoms: C1_1  and  O1_2 
REMARK    2  A    between atoms: O1_2  and  C2_3 
ROOT
ATOM      1  C2  <0> d           0.603  -0.605  -1.051  0.00  0.00     0.170 A 
ATOM      2  C3  <0> d           0.655  -1.983  -1.129  0.00  0.00     0.033 A 
ATOM      3  C4  <0> d           1.287  -2.567  -2.237  0.00  0.00     0.250 A 
ATOM      4  O2  <0> d           1.356  -3.781  -2.347  0.00  0.00    -0.268 OA
ATOM      5  N1  <0> d           1.818  -1.760  -3.180  0.00  0.00    -0.318 N 
ATOM      6  H1  <0> d           2.259  -2.146  -3.954  0.00  0.00     0.169 HD
ATOM      7  C5  <0> d           1.738  -0.421  -3.051  0.00  0.00     0.069 A 
ATOM      8  N2  <0> d           1.147   0.134  -2.028  0.00  0.00    -0.220 NA
ATOM      9  H5  <0> d           0.219  -2.597  -0.354  0.00  0.00     0.099 H 
ATOM     10  H6  <0> d           2.168   0.208  -3.816  0.00  0.00     0.143 H 
ENDROOT
BRANCH   1  11
ATOM     11  O1  <0> d           0.002  -0.004   0.002  0.00  0.00    -0.339 OA
BRANCH  11  12
ATOM     12  C1  <0> d          -0.017   1.425   0.010  0.00  0.00     0.012 C 
ATOM     13  H2  <0> d           1.005   1.802   0.002  0.00  0.00     0.067 H 
ATOM     14  H3  <0> d          -0.544   1.786  -0.873  0.00  0.00     0.067 H 
ATOM     15  H4  <0> d          -0.527   1.776   0.907  0.00  0.00     0.067 H 
ENDBRANCH  11  12
ENDBRANCH   1  11
TORSDOF 2
