REMARK  2 active torsions:
REMARK  status: ('A' for Active; 'I' for Inactive)
REMARK    1  A    between atoms: C3_3  and  C5_7 
REMARK    2  A    between atoms: C5_7  and  C6_9 
ROOT
ATOM      1  C6  <0> d          -0.018   1.468   0.010  0.00  0.00     0.075 C 
ATOM      2  C7  <0> d           0.002  -0.004   0.002  0.00  0.00     0.067 C 
ATOM      3  N2  <0> d           0.018  -1.140  -0.004  0.00  0.00    -0.197 NA
ATOM      4  H5  <0> d           0.920   1.814   0.003  0.00  0.00     0.067 H 
ATOM      5  H6  <0> d          -0.545   1.829  -0.873  0.00  0.00     0.067 H 
ENDROOT
BRANCH   1   6
ATOM      6  C5  <0> d          -0.723   1.954   1.250  0.00  0.00     0.188 C 
ATOM      7  O1  <0> d          -1.166   1.154   2.049  0.00  0.00    -0.290 OA
BRANCH   6   8
ATOM      8  C3  <0> d          -0.869   3.340   1.482  0.00  0.00     0.079 A 
ATOM      9  C2  <0> d          -0.412   4.361   0.666  0.00  0.00    -0.052 A 
ATOM     10  C1  <0> d          -0.776   5.563   1.276  0.00  0.00    -0.066 A 
ATOM     11  H3  <0> d           0.122   4.248  -0.266  0.00  0.00     0.087 H 
ATOM     12  C4  <0> d          -1.424   5.266   2.430  0.00  0.00    -0.022 A 
ATOM     13  H2  <0> d          -0.572   6.554   0.898  0.00  0.00     0.085 H 
ATOM     14  N1  <0> d          -1.488   3.926   2.567  0.00  0.00    -0.363 N 
ATOM     15  H4  <0> d          -1.825   5.987   3.127  0.00  0.00     0.111 H 
ATOM     16  H1  <0> d          -1.900   3.452   3.306  0.00  0.00     0.165 HD
ENDBRANCH   6   8
ENDBRANCH   1   6
TORSDOF 2
