REMARK  1 active torsions:
REMARK  status: ('A' for Active; 'I' for Inactive)
REMARK    1  A    between atoms: C2_2  and  O1_10 
ROOT
ATOM      1  C1  <0> d          -0.019   1.534   0.011  0.00  0.00     0.032 C 
ATOM      2  C2  <0> d           0.002  -0.004   0.002  0.00  0.00     0.110 C 
ATOM      3  H1  <0> d           0.014  -0.435  -0.999  0.00  0.00     0.092 H 
ATOM      4  C3  <0> d           1.394   0.090   0.649  0.00  0.00     0.333 C 
ATOM      5  C4  <0> d           1.518   1.476  -0.004  0.00  0.00     0.313 C 
ATOM      6  F1  <0> d           2.065   1.442  -1.292  0.00  0.00    -0.199 F 
ATOM      7  F2  <0> d           2.122   2.432   0.819  0.00  0.00    -0.199 F 
ATOM      8  F3  <0> d           1.361   0.130   2.047  0.00  0.00    -0.197 F 
ATOM      9  F4  <0> d           2.306  -0.849   0.154  0.00  0.00    -0.197 F 
ATOM     10  H2  <0> d          -0.448   1.969  -0.892  0.00  0.00     0.046 H 
ATOM     11  H3  <0> d          -0.431   1.960   0.925  0.00  0.00     0.046 H 
ENDROOT
BRANCH   2  12
ATOM     12  O1  <0> d          -0.986  -0.595   0.849  0.00  0.00    -0.389 OA
ATOM     13  H4  <0> d          -0.978  -1.562   0.848  0.00  0.00     0.210 HD
ENDBRANCH   2  12
TORSDOF 1
