REMARK  3 active torsions:
REMARK  status: ('A' for Active; 'I' for Inactive)
REMARK    1  A    between atoms: C1_1  and  O1_2 
REMARK    2  A    between atoms: O1_2  and  C2_3 
REMARK    3  A    between atoms: C2_3  and  C3_5 
ROOT
ATOM      1  C2  <0> d          -2.037   1.106   1.292  0.00  0.00     0.264 C 
ATOM      2  H1  <0> d          -2.606   1.468   0.436  0.00  0.00     0.151 H 
ATOM      3  F4  <0> d          -2.071  -0.292   1.319  0.00  0.00    -0.210 F 
ENDROOT
BRANCH   1   4
ATOM      4  O1  <0> d          -0.682   1.547   1.184  0.00  0.00    -0.355 OA
BRANCH   4   5
ATOM      5  C1  <0> d          -0.013   1.086   0.008  0.00  0.00     0.008 C 
ATOM      6  H2  <0> d           0.002  -0.004   0.002  0.00  0.00     0.066 H 
ATOM      7  H3  <0> d           1.010   1.463   0.000  0.00  0.00     0.066 H 
ATOM      8  H4  <0> d          -0.540   1.447  -0.875  0.00  0.00     0.066 H 
ENDBRANCH   4   5
ENDBRANCH   1   4
BRANCH   1   9
ATOM      9  C3  <0> d          -2.650   1.656   2.581  0.00  0.00     0.442 C 
ATOM     10  F1  <0> d          -2.615   3.054   2.555  0.00  0.00    -0.166 F 
ATOM     11  F2  <0> d          -3.977   1.225   2.687  0.00  0.00    -0.166 F 
ATOM     12  F3  <0> d          -1.920   1.192   3.680  0.00  0.00    -0.166 F 
ENDBRANCH   1   9
TORSDOF 3
