REMARK  4 active torsions:
REMARK  status: ('A' for Active; 'I' for Inactive)
REMARK    1  A    between atoms: C1_1  and  O1_2 
REMARK    2  A    between atoms: O1_2  and  C2_3 
REMARK    3  A    between atoms: C2_3  and  C3_4 
REMARK    4  A    between atoms: C5_6  and  N3_10 
ROOT
ATOM      1  C3  <0> d           0.633  -2.085   1.012  0.00  0.00     0.063 A 
ATOM      2  C4  <0> d           0.015  -2.690  -0.064  0.00  0.00    -0.013 A 
ATOM      3  C5  <0> d           0.004  -4.085  -0.124  0.00  0.00     0.124 A 
ATOM      4  N1  <0> d           0.585  -4.775   0.853  0.00  0.00    -0.225 NA
ATOM      5  C6  <0> d           1.164  -4.156   1.862  0.00  0.00     0.089 A 
ATOM      6  N2  <0> d           1.196  -2.841   1.944  0.00  0.00    -0.244 NA
ATOM      7  H6  <0> d          -0.449  -2.099  -0.840  0.00  0.00     0.092 H 
ATOM      8  H7  <0> d           1.629  -4.742   2.641  0.00  0.00     0.146 H 
ENDROOT
BRANCH   1   9
ATOM      9  C2  <0> d           0.673  -0.582   1.123  0.00  0.00     0.059 C 
ATOM     10  H4  <0> d           1.710  -0.247   1.139  0.00  0.00     0.084 H 
ATOM     11  H5  <0> d           0.177  -0.273   2.043  0.00  0.00     0.084 H 
BRANCH   9  12
ATOM     12  O1  <0> d           0.002  -0.004   0.002  0.00  0.00    -0.390 OA
BRANCH  12  13
ATOM     13  C1  <0> d          -0.017   1.425   0.010  0.00  0.00     0.004 C 
ATOM     14  H1  <0> d           1.005   1.802   0.002  0.00  0.00     0.066 H 
ATOM     15  H2  <0> d          -0.544   1.786  -0.873  0.00  0.00     0.066 H 
ATOM     16  H3  <0> d          -0.527   1.776   0.907  0.00  0.00     0.066 H 
ENDBRANCH  12  13
ENDBRANCH   9  12
ENDBRANCH   1   9
BRANCH   3  17
ATOM     17  N3  <0> d          -0.604  -4.739  -1.183  0.00  0.00    -0.384 N 
ATOM     18  H8  <0> d          -1.027  -4.228  -1.891  0.00  0.00     0.157 HD
ATOM     19  H9  <0> d          -0.608  -5.709  -1.216  0.00  0.00     0.157 HD
ENDBRANCH   3  17
TORSDOF 4
