REMARK  3 active torsions:
REMARK  status: ('A' for Active; 'I' for Inactive)
REMARK    1  A    between atoms: C1_1  and  C2_2 
REMARK    2  A    between atoms: C2_2  and  N1_3 
REMARK    3  A    between atoms: C4_6  and  N4_8 
ROOT
ATOM      1  N1  <0> d          -0.742   3.069   0.024  0.00  0.00    -0.187 N 
ATOM      2  N2  <0> d          -1.084   1.829   0.017  0.00  0.00    -0.164 NA
ATOM      3  C3  <0> d          -0.013   1.076   0.008  0.00  0.00     0.069 A 
ATOM      4  C4  <0> d           1.110   1.911   0.002  0.00  0.00     0.162 A 
ATOM      5  N3  <0> d           0.657   3.149   0.012  0.00  0.00    -0.136 NA
ATOM      6  H6  <0> d           0.002  -0.004   0.002  0.00  0.00     0.123 H 
ENDROOT
BRANCH   1   7
ATOM      7  C2  <0> d          -1.663   4.209   0.038  0.00  0.00     0.032 C 
ATOM      8  H4  <0> d          -2.579   3.930   0.559  0.00  0.00     0.069 H 
ATOM      9  H5  <0> d          -1.194   5.048   0.552  0.00  0.00     0.069 H 
BRANCH   7  10
ATOM     10  C1  <0> d          -1.997   4.613  -1.399  0.00  0.00    -0.058 C 
ATOM     11  H1  <0> d          -1.081   4.892  -1.920  0.00  0.00     0.029 H 
ATOM     12  H2  <0> d          -2.465   3.773  -1.913  0.00  0.00     0.029 H 
ATOM     13  H3  <0> d          -2.682   5.460  -1.389  0.00  0.00     0.029 H 
ENDBRANCH   7  10
ENDBRANCH   1   7
BRANCH   4  14
ATOM     14  N4  <0> d           2.452   1.510  -0.013  0.00  0.00    -0.381 N 
ATOM     15  H7  <0> d           2.676   0.567  -0.020  0.00  0.00     0.157 HD
ATOM     16  H8  <0> d           3.157   2.176  -0.016  0.00  0.00     0.157 HD
ENDBRANCH   4  14
TORSDOF 3
