REMARK  3 active torsions:
REMARK  status: ('A' for Active; 'I' for Inactive)
REMARK    1  A    between atoms: C1_1  and  S1_4 
REMARK    2  A    between atoms: S1_4  and  C3_5 
REMARK    3  A    between atoms: C4_7  and  N5_11 
ROOT
ATOM      1  C1  <0> d           1.732   2.220  -0.003  0.00  0.00     0.063 C 
ATOM      2  C2  <0> d           1.853   3.688   0.004  0.00  0.00     0.069 C 
ATOM      3  N1  <0> d           1.946   4.820   0.009  0.00  0.00    -0.197 NA
ATOM      4  H2  <0> d           2.223   1.812   0.881  0.00  0.00     0.071 H 
ATOM      5  H3  <0> d           2.206   1.821  -0.899  0.00  0.00     0.071 H 
ENDROOT
BRANCH   1   6
ATOM      6  S1  <0> d          -0.022   1.758   0.012  0.00  0.00    -0.074 SA
BRANCH   6   7
ATOM      7  C3  <0> d           0.002  -0.004   0.002  0.00  0.00     0.226 A 
ATOM      8  N4  <0> d           1.079  -0.752  -0.012  0.00  0.00    -0.132 NA
ATOM      9  N3  <0> d           0.650  -2.088  -0.015  0.00  0.00    -0.105 N 
ATOM     10  C4  <0> d          -0.699  -2.057  -0.002  0.00  0.00     0.716 A 
ATOM     11  H1  <0> d           1.212  -2.879  -0.023  0.00  0.00     0.208 HD
ATOM     12  N2  <0> d          -1.076  -0.796   0.013  0.00  0.00    -0.035 NA
BRANCH  10  13
ATOM     13  N5  <0> d          -1.537  -3.157   0.000  0.00  0.00    -0.231 N 
ATOM     14  H4  <0> d          -1.164  -4.052  -0.008  0.00  0.00     0.174 HD
ATOM     15  H5  <0> d          -2.499  -3.033   0.010  0.00  0.00     0.174 HD
ENDBRANCH  10  13
ENDBRANCH   6   7
ENDBRANCH   1   6
TORSDOF 3
