REMARK  2 active torsions:
REMARK  status: ('A' for Active; 'I' for Inactive)
REMARK    1  A    between atoms: C1_1  and  C2_2 
REMARK    2  A    between atoms: C2_2  and  C3_3 
ROOT
ATOM      1  C3  <0> d           0.707  -0.490  -1.238  0.00  0.00     0.134 A 
ATOM      2  N1  <0> d           0.150  -0.744  -2.396  0.00  0.00    -0.134 NA
ATOM      3  N2  <0> d           1.037  -1.142  -3.240  0.00  0.00    -0.128 NA
ATOM      4  C4  <0> d           2.220  -1.161  -2.653  0.00  0.00     0.175 A 
ATOM      5  N3  <0> d           2.027  -0.737  -1.358  0.00  0.00    -0.289 N 
ATOM      6  C5  <0> d           3.102  -0.655  -0.518  0.00  0.00     0.005 A 
ATOM      7  C6  <0> d           4.330  -0.987  -0.969  0.00  0.00     0.017 A 
ATOM      8  N4  <0> d           4.520  -1.396  -2.227  0.00  0.00    -0.268 NA
ATOM      9  C7  <0> d           3.521  -1.500  -3.070  0.00  0.00     0.048 A 
ATOM     10  H6  <0> d           2.969  -0.327   0.502  0.00  0.00     0.114 H 
ATOM     11  H7  <0> d           5.175  -0.921  -0.301  0.00  0.00     0.116 H 
ATOM     12  H8  <0> d           3.698  -1.832  -4.083  0.00  0.00     0.120 H 
ENDROOT
BRANCH   1  13
ATOM     13  C2  <0> d           0.002  -0.004   0.002  0.00  0.00    -0.011 C 
ATOM     14  H4  <0> d           0.529  -0.365   0.885  0.00  0.00     0.044 H 
ATOM     15  H5  <0> d          -1.020  -0.381   0.010  0.00  0.00     0.044 H 
BRANCH  13  16
ATOM     16  C1  <0> d          -0.019   1.526   0.010  0.00  0.00    -0.070 C 
ATOM     17  H1  <0> d           1.004   1.903   0.003  0.00  0.00     0.028 H 
ATOM     18  H2  <0> d          -0.546   1.887  -0.873  0.00  0.00     0.028 H 
ATOM     19  H3  <0> d          -0.529   1.877   0.907  0.00  0.00     0.028 H 
ENDBRANCH  13  16
ENDBRANCH   1  13
TORSDOF 2
