REMARK  1 active torsions:
REMARK  status: ('A' for Active; 'I' for Inactive)
REMARK    1  A    between atoms: C3_5  and  C4_6 
REMARK       I    between atoms: C4_6  and  N2_8 
ROOT
ATOM      1  C1  <0> d          -2.553   1.379   0.016  0.00  0.00    -0.024 A 
ATOM      2  C2  <0> d          -3.417   2.497   0.032  0.00  0.00     0.032 A 
ATOM      3  N1  <0> d          -2.657   3.553   0.034  0.00  0.00    -0.140 NA
ATOM      4  O1  <0> d          -1.483   3.266   0.026  0.00  0.00    -0.208 OA
ATOM      5  C3  <0> d          -1.302   1.932   0.019  0.00  0.00     0.170 A 
ATOM      6  H1  <0> d          -2.819   0.332   0.006  0.00  0.00     0.090 H 
ATOM      7  H2  <0> d          -4.497   2.478   0.037  0.00  0.00     0.118 H 
ENDROOT
BRANCH   5   8
ATOM      8  C4  <0> d          -0.014   1.212   0.009  0.00  0.00     0.275 C 
ATOM      9  O2  <0> d           0.002  -0.004   0.002  0.00  0.00    -0.266 OA
ATOM     10  N2  <0> d           1.143   1.901   0.001  0.00  0.00    -0.364 N 
ATOM     11  H3  <0> d           1.990   1.428  -0.009  0.00  0.00     0.159 HD
ATOM     12  H4  <0> d           1.130   2.871   0.007  0.00  0.00     0.159 HD
ENDBRANCH   5   8
TORSDOF 1
