REMARK  8 active torsions:
REMARK  status: ('A' for Active; 'I' for Inactive)
REMARK    1  A    between atoms: C1_1  and  C2_2 
REMARK    2  A    between atoms: C2_2  and  C3_3 
REMARK    3  A    between atoms: C3_3  and  C4_4 
REMARK    4  A    between atoms: C4_4  and  O1_5 
REMARK    5  A    between atoms: O1_5  and  C5_6 
REMARK    6  A    between atoms: C5_6  and  C6_7 
REMARK    7  A    between atoms: C6_7  and  C7_8 
REMARK    8  A    between atoms: C7_8  and  O2_9 
ROOT
ATOM      1  C4  <0> d           3.648   5.849  -0.001  0.00  0.00     0.019 C 
ATOM      2  H8  <0> d           4.225   5.574   0.882  0.00  0.00     0.074 H 
ATOM      3  H9  <0> d           4.208   5.583  -0.898  0.00  0.00     0.074 H 
ENDROOT
BRANCH   1   4
ATOM      4  C3  <0> d           3.387   7.356   0.009  0.00  0.00    -0.045 C 
ATOM      5  H6  <0> d           2.810   7.631  -0.874  0.00  0.00     0.036 H 
ATOM      6  H7  <0> d           2.827   7.622   0.906  0.00  0.00     0.036 H 
BRANCH   4   7
ATOM      7  C2  <0> d           4.721   8.105   0.001  0.00  0.00    -0.067 C 
ATOM      8  H4  <0> d           5.298   7.830   0.884  0.00  0.00     0.032 H 
ATOM      9  H5  <0> d           5.280   7.840  -0.896  0.00  0.00     0.032 H 
BRANCH   7  10
ATOM     10  C1  <0> d           4.459   9.613   0.011  0.00  0.00    -0.076 C 
ATOM     11  H1  <0> d           5.410  10.146   0.005  0.00  0.00     0.027 H 
ATOM     12  H2  <0> d           3.883   9.888  -0.872  0.00  0.00     0.027 H 
ATOM     13  H3  <0> d           3.900   9.878   0.908  0.00  0.00     0.027 H 
ENDBRANCH   7  10
ENDBRANCH   4   7
ENDBRANCH   1   4
BRANCH   1  14
ATOM     14  O1  <0> d           2.402   5.149   0.007  0.00  0.00    -0.391 OA
BRANCH  14  15
ATOM     15  C5  <0> d           2.534   3.726  -0.002  0.00  0.00     0.021 C 
ATOM     16  H10 <0> d           3.088   3.407   0.881  0.00  0.00     0.074 H 
ATOM     17  H11 <0> d           3.071   3.417  -0.899  0.00  0.00     0.074 H 
BRANCH  15  18
ATOM     18  C6  <0> d           1.145   3.085   0.008  0.00  0.00    -0.026 C 
ATOM     19  H12 <0> d           0.591   3.404  -0.875  0.00  0.00     0.039 H 
ATOM     20  H13 <0> d           0.608   3.395   0.904  0.00  0.00     0.039 H 
BRANCH  18  21
ATOM     21  C7  <0> d           1.286   1.562  -0.002  0.00  0.00     0.019 C 
ATOM     22  H14 <0> d           1.840   1.243   0.881  0.00  0.00     0.074 H 
ATOM     23  H15 <0> d           1.823   1.252  -0.899  0.00  0.00     0.074 H 
BRANCH  21  24
ATOM     24  O2  <0> d          -0.011   0.963   0.007  0.00  0.00    -0.401 OA
ATOM     25  H16 <0> d           0.002  -0.004   0.002  0.00  0.00     0.209 HD
ENDBRANCH  21  24
ENDBRANCH  18  21
ENDBRANCH  15  18
ENDBRANCH  14  15
ENDBRANCH   1  14
TORSDOF 8
