REMARK  2 active torsions:
REMARK  status: ('A' for Active; 'I' for Inactive)
REMARK    1  A    between atoms: C7_8  and  C8_10 
REMARK    2  A    between atoms: C8_10  and  O1_11 
ROOT
ATOM      1  C1  <0> d          -0.016   1.356   0.009  0.00  0.00    -0.079 A 
ATOM      2  C2  <0> d           1.196   2.067   0.002  0.00  0.00    -0.066 A 
ATOM      3  C3  <0> d           2.373   1.408  -0.013  0.00  0.00     0.004 A 
ATOM      4  N1  <0> d           2.408   0.043  -0.022  0.00  0.00    -0.245 N 
ATOM      5  C4  <0> d           1.240  -0.675  -0.014  0.00  0.00     0.060 A 
ATOM      6  C5  <0> d           0.002  -0.004   0.002  0.00  0.00    -0.055 A 
ATOM      7  C6  <0> d           1.588  -2.020  -0.025  0.00  0.00    -0.028 A 
ATOM      8  C7  <0> d           2.972  -2.093  -0.040  0.00  0.00     0.081 A 
ATOM      9  N2  <0> d           3.465  -0.875  -0.037  0.00  0.00    -0.170 NA
ATOM     10  H1  <0> d          -0.957   1.887   0.026  0.00  0.00     0.083 H 
ATOM     11  H2  <0> d           1.185   3.147   0.008  0.00  0.00     0.085 H 
ATOM     12  H3  <0> d           3.298   1.967  -0.020  0.00  0.00     0.114 H 
ATOM     13  H4  <0> d          -0.922  -0.563   0.007  0.00  0.00     0.087 H 
ATOM     14  H5  <0> d           0.905  -2.856  -0.022  0.00  0.00     0.090 H 
ENDROOT
BRANCH   8  15
ATOM     15  C8  <0> d           3.780  -3.365  -0.054  0.00  0.00     0.058 C 
ATOM     16  H6  <0> d           4.399  -3.391  -0.951  0.00  0.00     0.083 H 
ATOM     17  H7  <0> d           4.418  -3.401   0.829  0.00  0.00     0.083 H 
BRANCH  15  18
ATOM     18  O1  <0> d           2.899  -4.490  -0.051  0.00  0.00    -0.395 OA
ATOM     19  H8  <0> d           3.351  -5.344  -0.061  0.00  0.00     0.209 HD
ENDBRANCH  15  18
ENDBRANCH   8  15
TORSDOF 2
