REMARK  3 active torsions:
REMARK  status: ('A' for Active; 'I' for Inactive)
REMARK    1  A    between atoms: C2_2  and  C3_3 
REMARK    2  A    between atoms: C6_6  and  C9_9 
REMARK    3  A    between atoms: C9_9  and  O1_10 
ROOT
ATOM      1  C3  <0> d          -2.014   2.465   3.526  0.00  0.00    -0.037 A 
ATOM      2  C4  <0> d          -2.370   1.244   2.951  0.00  0.00    -0.072 A 
ATOM      3  C5  <0> d          -1.720   0.805   1.816  0.00  0.00    -0.074 A 
ATOM      4  C6  <0> d          -0.718   1.572   1.248  0.00  0.00    -0.035 A 
ATOM      5  C7  <0> d          -0.357   2.780   1.817  0.00  0.00    -0.074 A 
ATOM      6  C8  <0> d          -1.003   3.233   2.949  0.00  0.00    -0.072 A 
ATOM      7  H4  <0> d          -3.152   0.645   3.393  0.00  0.00     0.084 H 
ATOM      8  H5  <0> d          -1.994  -0.140   1.369  0.00  0.00     0.084 H 
ATOM      9  H6  <0> d           0.429   3.372   1.371  0.00  0.00     0.084 H 
ATOM     10  H7  <0> d          -0.724   4.179   3.389  0.00  0.00     0.084 H 
ENDROOT
BRANCH   1  11
ATOM     11  C2  <0> d          -2.707   2.942   4.742  0.00  0.00    -0.082 C 
ATOM     12  C1  <0> d          -2.367   4.102   5.286  0.00  0.00    -0.120 C 
ATOM     13  H1  <0> d          -1.584   4.699   4.841  0.00  0.00     0.066 H 
ATOM     14  H2  <0> d          -2.873   4.451   6.174  0.00  0.00     0.066 H 
ATOM     15  H3  <0> d          -3.490   2.346   5.186  0.00  0.00     0.083 H 
ENDBRANCH   1  11
BRANCH   4  16
ATOM     16  C9  <0> d          -0.013   1.086   0.008  0.00  0.00     0.040 C 
ATOM     17  H8  <0> d           0.002  -0.004   0.002  0.00  0.00     0.081 H 
ATOM     18  H9  <0> d           1.010   1.463   0.000  0.00  0.00     0.081 H 
BRANCH  16  19
ATOM     19  O1  <0> d          -0.704   1.559  -1.150  0.00  0.00    -0.396 OA
ATOM     20  H10 <0> d          -0.304   1.284  -1.986  0.00  0.00     0.209 HD
ENDBRANCH  16  19
ENDBRANCH   4  16
TORSDOF 3
