REMARK  0 active torsions:
REMARK  status: ('A' for Active; 'I' for Inactive)
ROOT
ATOM      1  C1  <0> d          -0.013   1.076   0.008  0.00  0.00    -0.031 A 
ATOM      2  C2  <0> d           1.150   1.781   0.001  0.00  0.00    -0.024 A 
ATOM      3  C3  <0> d           1.123   3.187   0.008  0.00  0.00     0.219 A 
ATOM      4  N1  <0> d          -0.015   3.838   0.022  0.00  0.00    -0.137 NA
ATOM      5  N2  <0> d          -1.228   3.146   0.030  0.00  0.00    -0.203 N 
ATOM      6  C4  <0> d          -1.236   1.772   0.018  0.00  0.00     0.174 A 
ATOM      7  N3  <0> d          -2.504   1.396   0.034  0.00  0.00    -0.129 NA
ATOM      8  N4  <0> d          -3.257   2.441   0.047  0.00  0.00    -0.141 NA
ATOM      9  C5  <0> d          -2.523   3.526   0.045  0.00  0.00     0.112 A 
ATOM     10  O1  <0> d           2.290   3.880   0.001  0.00  0.00    -0.169 OA
ATOM     11  H1  <0> d           0.002  -0.004   0.002  0.00  0.00     0.089 H 
ATOM     12  H2  <0> d           2.096   1.260  -0.011  0.00  0.00     0.090 H 
ATOM     13  H3  <0> d          -2.888   4.543   0.055  0.00  0.00     0.149 H 
ENDROOT
TORSDOF 0
