REMARK  3 active torsions:
REMARK  status: ('A' for Active; 'I' for Inactive)
REMARK    1  A    between atoms: C1_1  and  C2_2 
REMARK    2  A    between atoms: C3_3  and  C5_9 
REMARK    3  A    between atoms: C4_7  and  N3_8 
ROOT
ATOM      1  C2  <0> d           0.002  -0.004   0.002  0.00  0.00     0.006 A 
ATOM      2  C3  <0> d           0.008  -0.821  -1.132  0.00  0.00     0.031 A 
ATOM      3  N1  <0> d           0.028  -2.069  -0.740  0.00  0.00    -0.303 N 
ATOM      4  N2  <0> d           0.035  -2.092   0.661  0.00  0.00    -0.285 N 
ATOM      5  H1  <0> d           0.049  -2.885   1.219  0.00  0.00     0.188 HD
ATOM      6  C4  <0> d           0.024  -0.812   1.098  0.00  0.00     0.121 A 
ATOM      7  H10 <0> d           0.036  -2.846  -1.320  0.00  0.00     0.186 HD
ENDROOT
BRANCH   1   8
ATOM      8  C1  <0> d          -0.018   1.503   0.010  0.00  0.00    -0.046 C 
ATOM      9  H2  <0> d           1.004   1.880   0.003  0.00  0.00     0.033 H 
ATOM     10  H3  <0> d          -0.545   1.864  -0.873  0.00  0.00     0.033 H 
ATOM     11  H4  <0> d          -0.529   1.854   0.907  0.00  0.00     0.033 H 
ENDBRANCH   1   8
BRANCH   6  12
ATOM     12  N3  <0> d           0.031  -0.396   2.426  0.00  0.00    -0.384 N 
ATOM     13  H5  <0> d           0.019   0.550   2.639  0.00  0.00     0.157 HD
ATOM     14  H6  <0> d           0.047  -1.053   3.140  0.00  0.00     0.157 HD
ENDBRANCH   6  12
BRANCH   2  15
ATOM     15  C5  <0> d          -0.006  -0.346  -2.562  0.00  0.00    -0.035 C 
ATOM     16  H7  <0> d           1.018  -0.217  -2.912  0.00  0.00     0.035 H 
ATOM     17  H8  <0> d          -0.512  -1.083  -3.185  0.00  0.00     0.035 H 
ATOM     18  H9  <0> d          -0.534   0.606  -2.623  0.00  0.00     0.035 H 
ENDBRANCH   2  15
TORSDOF 3
