REMARK  2 active torsions:
REMARK  status: ('A' for Active; 'I' for Inactive)
REMARK    1  A    between atoms: C1_1  and  S1_2 
REMARK    2  A    between atoms: S1_2  and  C2_3 
ROOT
ATOM      1  C2  <0> d          -1.183   3.250   0.030  0.00  0.00     0.191 A 
ATOM      2  N1  <0> d          -1.185   1.888   0.018  0.00  0.00    -0.181 NA
ATOM      3  C3  <0> d          -0.015   1.216   0.009  0.00  0.00     0.309 A 
ATOM      4  O1  <0> d           0.002  -0.004   0.002  0.00  0.00    -0.263 OA
ATOM      5  C4  <0> d           1.187   1.950   0.001  0.00  0.00     0.203 A 
ATOM      6  C5  <0> d           1.127   3.314   0.009  0.00  0.00     0.048 A 
ATOM      7  N2  <0> d          -0.054   3.930   0.023  0.00  0.00    -0.232 NA
ATOM      8  F1  <0> d           2.379   1.315  -0.014  0.00  0.00    -0.199 F 
ATOM      9  H4  <0> d           1.970   3.852   0.004  0.00  0.00     0.119 H 
ENDROOT
BRANCH   1  10
ATOM     10  S1  <0> d          -2.716   4.118   0.057  0.00  0.00    -0.095 SA
BRANCH  10  11
ATOM     11  C1  <0> d          -2.111   5.824   0.057  0.00  0.00    -0.027 C 
ATOM     12  H1  <0> d          -2.966   6.516   0.072  0.00  0.00     0.042 H 
ATOM     13  H2  <0> d          -1.513   6.001  -0.849  0.00  0.00     0.042 H 
ATOM     14  H3  <0> d          -1.488   5.992   0.947  0.00  0.00     0.042 H 
ENDBRANCH  10  11
ENDBRANCH   1  10
TORSDOF 2
