REMARK  2 active torsions:
REMARK  status: ('A' for Active; 'I' for Inactive)
REMARK    1  A    between atoms: C8_9  and  C9_10 
REMARK    2  A    between atoms: C9_10  and  O2_11 
ROOT
ATOM      1  C1  <0> d           4.151   1.885  -0.029  0.00  0.00    -0.072 A 
ATOM      2  C2  <0> d           3.529   0.655  -0.028  0.00  0.00    -0.049 A 
ATOM      3  C3  <0> d           2.142   0.578  -0.015  0.00  0.00     0.085 A 
ATOM      4  C4  <0> d           1.388   1.764  -0.002  0.00  0.00     0.000 A 
ATOM      5  C5  <0> d          -0.016   1.336   0.009  0.00  0.00    -0.049 A 
ATOM      6  C6  <0> d           0.002  -0.004   0.002  0.00  0.00     0.020 A 
ATOM      7  O1  <0> d           1.270  -0.450  -0.013  0.00  0.00    -0.322 OA
ATOM      8  C7  <0> d           2.029   3.002  -0.002  0.00  0.00    -0.062 A 
ATOM      9  C8  <0> d           3.405   3.055  -0.015  0.00  0.00    -0.034 A 
ATOM     10  H1  <0> d           5.229   1.938  -0.039  0.00  0.00     0.084 H 
ATOM     11  H2  <0> d           4.119  -0.249  -0.038  0.00  0.00     0.087 H 
ATOM     12  H3  <0> d          -0.888   1.972   0.017  0.00  0.00     0.087 H 
ATOM     13  H4  <0> d          -0.875  -0.634   0.007  0.00  0.00     0.123 H 
ATOM     14  H5  <0> d           1.450   3.913   0.009  0.00  0.00     0.085 H 
ENDROOT
BRANCH   9  15
ATOM     15  C9  <0> d           4.105   4.390  -0.015  0.00  0.00     0.040 C 
ATOM     16  H6  <0> d           5.056   4.302  -0.538  0.00  0.00     0.081 H 
ATOM     17  H7  <0> d           3.480   5.127  -0.519  0.00  0.00     0.081 H 
BRANCH  15  18
ATOM     18  O2  <0> d           4.339   4.805   1.332  0.00  0.00    -0.396 OA
ATOM     19  H8  <0> d           4.787   5.659   1.409  0.00  0.00     0.209 HD
ENDBRANCH  15  18
ENDBRANCH   9  15
TORSDOF 2
