REMARK  3 active torsions:
REMARK  status: ('A' for Active; 'I' for Inactive)
REMARK    1  A    between atoms: C3_3  and  C6_7 
REMARK    2  A    between atoms: C6_7  and  C7_8 
REMARK    3  A    between atoms: C7_8  and  C8_9 
ROOT
ATOM      1  C1  <0> d          -0.017   1.378   0.010  0.00  0.00    -0.066 A 
ATOM      2  C2  <0> d           1.185   2.070   0.002  0.00  0.00    -0.074 A 
ATOM      3  C3  <0> d           2.365   1.343  -0.013  0.00  0.00    -0.040 A 
ATOM      4  C4  <0> d           2.305  -0.038  -0.020  0.00  0.00     0.008 A 
ATOM      5  N1  <0> d           1.144  -0.663  -0.013  0.00  0.00    -0.273 NA
ATOM      6  C5  <0> d           0.002  -0.004   0.002  0.00  0.00     0.002 A 
ATOM      7  H1  <0> d          -0.955   1.912   0.026  0.00  0.00     0.085 H 
ATOM      8  H2  <0> d           1.201   3.150   0.007  0.00  0.00     0.084 H 
ATOM      9  H3  <0> d           3.220  -0.612  -0.032  0.00  0.00     0.115 H 
ATOM     10  H4  <0> d          -0.929  -0.550   0.008  0.00  0.00     0.114 H 
ENDROOT
BRANCH   3  11
ATOM     11  C6  <0> d           3.696   2.049  -0.023  0.00  0.00    -0.031 C 
ATOM     12  H5  <0> d           4.429   1.435  -0.547  0.00  0.00     0.041 H 
ATOM     13  H6  <0> d           3.595   3.008  -0.531  0.00  0.00     0.041 H 
BRANCH  11  14
ATOM     14  C7  <0> d           4.161   2.280   1.417  0.00  0.00     0.019 C 
ATOM     15  H7  <0> d           3.428   2.894   1.941  0.00  0.00     0.049 H 
ATOM     16  H8  <0> d           4.262   1.321   1.925  0.00  0.00     0.049 H 
BRANCH  14  17
ATOM     17  C8  <0> d           5.492   2.987   1.407  0.00  0.00     0.172 C 
ATOM     18  O1  <0> d           6.021   3.278   0.347  0.00  0.00    -0.648 OA
ATOM     19  O2  <0> d           6.041   3.267   2.459  0.00  0.00    -0.648 OA
ENDBRANCH  14  17
ENDBRANCH  11  14
ENDBRANCH   3  11
TORSDOF 3
