REMARK  2 active torsions:
REMARK  status: ('A' for Active; 'I' for Inactive)
REMARK    1  A    between atoms: C1_1  and  C2_2 
REMARK    2  A    between atoms: C2_2  and  C6_9 
ROOT
ATOM      1  C2  <0> d           1.424  -0.506  -0.014  0.00  0.00     0.103 A 
ATOM      2  C3  <0> d           2.298   0.732  -0.016  0.00  0.00     0.168 A 
ATOM      3  O1  <0> d           3.505   0.784  -0.028  0.00  0.00    -0.294 OA
ATOM      4  C4  <0> d           1.321   1.887  -0.000  0.00  0.00     0.085 A 
ATOM      5  O2  <0> d          -0.016   1.330   0.009  0.00  0.00    -0.313 OA
ATOM      6  C5  <0> d           0.002  -0.004   0.002  0.00  0.00     0.274 A 
ATOM      7  O3  <0> d          -0.980  -0.709   0.008  0.00  0.00    -0.264 OA
ATOM      8  H4  <0> d           1.460   2.452  -0.813  0.00  0.00     0.087 H 
ATOM      9  H5  <0> d           1.477   2.490   0.894  0.00  0.00     0.087 H 
ENDROOT
BRANCH   1  10
ATOM     10  C1  <0> d           1.702  -1.347   1.234  0.00  0.00    -0.054 C 
ATOM     11  H1  <0> d           1.040  -2.213   1.243  0.00  0.00     0.029 H 
ATOM     12  H2  <0> d           2.739  -1.681   1.223  0.00  0.00     0.029 H 
ATOM     13  H3  <0> d           1.524  -0.744   2.124  0.00  0.00     0.029 H 
ENDBRANCH   1  10
BRANCH   1  14
ATOM     14  C6  <0> d           1.677  -1.335  -1.275  0.00  0.00    -0.054 C 
ATOM     15  H6  <0> d           1.482  -0.724  -2.157  0.00  0.00     0.029 H 
ATOM     16  H7  <0> d           2.714  -1.669  -1.288  0.00  0.00     0.029 H 
ATOM     17  H8  <0> d           1.015  -2.201  -1.280  0.00  0.00     0.029 H 
ENDBRANCH   1  14
TORSDOF 2
