REMARK  3 active torsions:
REMARK  status: ('A' for Active; 'I' for Inactive)
REMARK    1  A    between atoms: C1_1  and  C2_2 
REMARK    2  A    between atoms: C2_2  and  C3_3 
REMARK    3  A    between atoms: C2_2  and  C4_4 
ROOT
ATOM      1  C4  <0> d          -1.412  -0.526   0.013  0.00  0.00    -0.035 A 
ATOM      2  C5  <0> d          -2.458   0.320   0.332  0.00  0.00    -0.075 A 
ATOM      3  C6  <0> d          -3.755  -0.159   0.341  0.00  0.00    -0.082 A 
ATOM      4  C7  <0> d          -4.005  -1.482   0.032  0.00  0.00    -0.083 A 
ATOM      5  C8  <0> d          -2.959  -2.328  -0.288  0.00  0.00    -0.082 A 
ATOM      6  C9  <0> d          -1.663  -1.848  -0.302  0.00  0.00    -0.075 A 
ATOM      7  H7  <0> d          -2.262   1.354   0.573  0.00  0.00     0.084 H 
ATOM      8  H8  <0> d          -4.572   0.501   0.591  0.00  0.00     0.083 H 
ATOM      9  H9  <0> d          -5.019  -1.857   0.040  0.00  0.00     0.083 H 
ATOM     10  H10 <0> d          -3.155  -3.362  -0.529  0.00  0.00     0.083 H 
ATOM     11  H11 <0> d          -0.846  -2.507  -0.555  0.00  0.00     0.084 H 
ENDROOT
BRANCH   1  12
ATOM     12  C2  <0> d           0.002  -0.004   0.002  0.00  0.00     0.057 C 
ATOM     13 Cl1  <0> d           0.846  -0.586  -1.481  0.00  0.00    -0.115 Cl
BRANCH  12  14
ATOM     14  C1  <0> d          -0.019   1.526   0.010  0.00  0.00    -0.053 C 
ATOM     15  H1  <0> d           1.004   1.903   0.003  0.00  0.00     0.030 H 
ATOM     16  H2  <0> d          -0.546   1.887  -0.873  0.00  0.00     0.030 H 
ATOM     17  H3  <0> d          -0.529   1.877   0.907  0.00  0.00     0.030 H 
ENDBRANCH  12  14
BRANCH  12  18
ATOM     18  C3  <0> d           0.742  -0.511   1.242  0.00  0.00    -0.053 C 
ATOM     19  H4  <0> d           0.232  -0.159   2.138  0.00  0.00     0.030 H 
ATOM     20  H5  <0> d           0.757  -1.601   1.236  0.00  0.00     0.030 H 
ATOM     21  H6  <0> d           1.765  -0.134   1.234  0.00  0.00     0.030 H 
ENDBRANCH  12  18
ENDBRANCH   1  12
TORSDOF 3
