REMARK  2 active torsions:
REMARK  status: ('A' for Active; 'I' for Inactive)
REMARK    1  A    between atoms: C1_1  and  C2_2 
REMARK    2  A    between atoms: C2_2  and  N1_3 
ROOT
ATOM      1  N1  <0> d          -1.372  -0.511   0.012  0.00  0.00    -0.333 N 
ATOM      2  C3  <0> d          -2.162  -0.807   1.217  0.00  0.00     0.014 A 
ATOM      3  C4  <0> d          -3.511  -1.303   0.661  0.00  0.00     0.012 A 
ATOM      4  N2  <0> d          -3.338  -1.234  -0.797  0.00  0.00    -0.341 N 
ATOM      5  C5  <0> d          -2.111  -0.773  -1.074  0.00  0.00     0.318 A 
ATOM      6  O1  <0> d          -1.703  -0.612  -2.208  0.00  0.00    -0.247 OA
ATOM      7  H6  <0> d          -1.682  -1.587   1.808  0.00  0.00     0.067 H 
ATOM      8  H7  <0> d          -2.302   0.094   1.814  0.00  0.00     0.067 H 
ATOM      9  H8  <0> d          -3.701  -2.329   0.976  0.00  0.00     0.066 H 
ATOM     10  H9  <0> d          -4.321  -0.647   0.982  0.00  0.00     0.066 H 
ATOM     11  H10 <0> d          -4.008  -1.478  -1.455  0.00  0.00     0.164 HD
ENDROOT
BRANCH   1  12
ATOM     12  C2  <0> d           0.002  -0.004   0.002  0.00  0.00    -0.004 C 
ATOM     13  H4  <0> d           0.512  -0.356  -0.895  0.00  0.00     0.063 H 
ATOM     14  H5  <0> d           0.529  -0.365   0.885  0.00  0.00     0.063 H 
BRANCH  12  15
ATOM     15  C1  <0> d          -0.019   1.526   0.010  0.00  0.00    -0.061 C 
ATOM     16  H1  <0> d           1.004   1.903   0.003  0.00  0.00     0.029 H 
ATOM     17  H2  <0> d          -0.546   1.887  -0.873  0.00  0.00     0.029 H 
ATOM     18  H3  <0> d          -0.529   1.877   0.907  0.00  0.00     0.029 H 
ENDBRANCH  12  15
ENDBRANCH   1  12
TORSDOF 2
