REMARK  1 active torsions:
REMARK  status: ('A' for Active; 'I' for Inactive)
REMARK    1  A    between atoms: C2_2  and  C3_3 
ROOT
ATOM      1  C3  <0> d           1.351   1.876  -0.001  0.00  0.00     0.147 C 
ATOM      2  O1  <0> d          -0.017   1.435   0.010  0.00  0.00    -0.356 OA
ATOM      3  C4  <0> d           0.002  -0.004   0.002  0.00  0.00     0.043 C 
ATOM      4  C5  <0> d           1.498  -0.386   0.030  0.00  0.00     0.043 C 
ATOM      5  O2  <0> d           2.125   0.801   0.574  0.00  0.00    -0.356 OA
ATOM      6  H4  <0> d           1.675   2.066  -1.024  0.00  0.00     0.136 H 
ATOM      7  H5  <0> d          -0.505  -0.394   0.884  0.00  0.00     0.077 H 
ATOM      8  H6  <0> d          -0.470  -0.384  -0.904  0.00  0.00     0.077 H 
ATOM      9  H7  <0> d           1.666  -1.243   0.682  0.00  0.00     0.077 H 
ATOM     10  H8  <0> d           1.864  -0.588  -0.977  0.00  0.00     0.077 H 
ENDROOT
BRANCH   1  11
ATOM     11  C2  <0> d           1.499   3.124   0.831  0.00  0.00    -0.060 C 
ATOM     12  C1  <0> d           1.934   4.230   0.281  0.00  0.00    -0.120 C 
ATOM     13  H1  <0> d           2.041   5.125   0.877  0.00  0.00     0.066 H 
ATOM     14  H2  <0> d           2.187   4.248  -0.769  0.00  0.00     0.066 H 
ATOM     15  H3  <0> d           1.247   3.106   1.881  0.00  0.00     0.083 H 
ENDBRANCH   1  11
TORSDOF 1
