REMARK  1 active torsions:
REMARK  status: ('A' for Active; 'I' for Inactive)
REMARK    1  A    between atoms: C6_6  and  C7_8 
ROOT
ATOM      1  C1  <0> d          -3.219  -1.590   0.441  0.00  0.00    -0.064 C 
ATOM      2  C2  <0> d          -1.775  -1.929   0.852  0.00  0.00    -0.057 C 
ATOM      3  C3  <0> d          -1.340  -0.727   0.007  0.00  0.00    -0.026 A 
ATOM      4  C4  <0> d          -2.739  -0.142   0.232  0.00  0.00    -0.057 C 
ATOM      5  C5  <0> d          -0.496  -0.711  -1.262  0.00  0.00    -0.044 A 
ATOM      6  C6  <0> d           0.002  -0.004   0.002  0.00  0.00     0.038 A 
ATOM      7  H1  <0> d           0.826  -0.466   0.546  0.00  0.00     0.057 H 
ATOM      8  H2  <0> d          -3.538  -2.081  -0.478  0.00  0.00     0.033 H 
ATOM      9  H3  <0> d          -3.940  -1.698   1.251  0.00  0.00     0.033 H 
ATOM     10  H4  <0> d          -1.424  -2.886   0.464  0.00  0.00     0.034 H 
ATOM     11  H5  <0> d          -1.582  -1.808   1.918  0.00  0.00     0.034 H 
ATOM     12  H6  <0> d          -2.817   0.477   1.125  0.00  0.00     0.034 H 
ATOM     13  H7  <0> d          -3.161   0.334  -0.653  0.00  0.00     0.034 H 
ATOM     14  H8  <0> d          -0.838  -0.086  -2.087  0.00  0.00     0.035 H 
ATOM     15  H9  <0> d           0.000  -1.639  -1.548  0.00  0.00     0.035 H 
ENDROOT
BRANCH   6  16
ATOM     16  C7  <0> d          -0.018   1.503   0.010  0.00  0.00     0.177 C 
ATOM     17  O1  <0> d          -1.073   2.093   0.018  0.00  0.00    -0.648 OA
ATOM     18  O2  <0> d           1.135   2.190   0.003  0.00  0.00    -0.648 OA
ENDBRANCH   6  16
TORSDOF 1
