REMARK  1 active torsions:
REMARK  status: ('A' for Active; 'I' for Inactive)
REMARK    1  A    between atoms: C5_6  and  O1_7 
ROOT
ATOM      1  C1  <0> d           1.878   1.830   1.188  0.00  0.00    -0.033 A 
ATOM      2  C2  <0> d           3.132   2.404   1.138  0.00  0.00     0.004 A 
ATOM      3  N1  <0> d           3.711   2.682  -0.015  0.00  0.00    -0.271 NA
ATOM      4  C3  <0> d           3.131   2.425  -1.169  0.00  0.00     0.025 A 
ATOM      5  C4  <0> d           1.865   1.841  -1.213  0.00  0.00     0.095 A 
ATOM      6  C5  <0> d           1.220   1.531  -0.001  0.00  0.00     0.089 A 
ATOM      7  C6  <0> d           1.233   1.561  -2.468  0.00  0.00     0.103 C 
ATOM      8  N2  <0> d           0.732   1.340  -3.463  0.00  0.00    -0.191 NA
ATOM      9  H1  <0> d           1.414   1.611   2.138  0.00  0.00     0.090 H 
ATOM     10  H2  <0> d           3.647   2.633   2.059  0.00  0.00     0.114 H 
ATOM     11  H3  <0> d           3.640   2.669  -2.090  0.00  0.00     0.117 H 
ENDROOT
BRANCH   6  12
ATOM     12  O1  <0> d          -0.011   0.963   0.007  0.00  0.00    -0.359 OA
ATOM     13  H4  <0> d           0.002  -0.004   0.002  0.00  0.00     0.217 HD
ENDBRANCH   6  12
TORSDOF 1
