REMARK  4 active torsions:
REMARK  status: ('A' for Active; 'I' for Inactive)
REMARK    1  A    between atoms: C1_1  and  C2_2 
REMARK       I    between atoms: C2_2  and  N1_4 
REMARK    2  A    between atoms: N1_4  and  C3_5 
REMARK    3  A    between atoms: C3_5  and  C4_6 
REMARK    4  A    between atoms: C4_6  and  N2_7 
ROOT
ATOM      1  C4  <0> d          -0.734   1.954   1.269  0.00  0.00     0.013 C 
ATOM      2  H7  <0> d          -1.756   1.577   1.277  0.00  0.00     0.067 H 
ATOM      3  H8  <0> d          -0.207   1.593   2.152  0.00  0.00     0.067 H 
ENDROOT
BRANCH   1   4
ATOM      4  C3  <0> d          -0.018   1.461   0.010  0.00  0.00     0.010 C 
ATOM      5  H5  <0> d           1.005   1.838   0.002  0.00  0.00     0.066 H 
ATOM      6  H6  <0> d          -0.545   1.822  -0.873  0.00  0.00     0.066 H 
BRANCH   4   7
ATOM      7  N1  <0> d           0.002  -0.004   0.002  0.00  0.00    -0.360 N 
ATOM      8  C2  <0> d           0.585  -0.664  -1.018  0.00  0.00     0.213 C 
ATOM      9  O1  <0> d           1.093  -0.046  -1.929  0.00  0.00    -0.274 OA
ATOM     10  H4  <0> d          -0.404  -0.499   0.731  0.00  0.00     0.162 HD
BRANCH   8  11
ATOM     11  C1  <0> d           0.606  -2.171  -1.026  0.00  0.00    -0.003 C 
ATOM     12  H1  <0> d           0.105  -2.546  -0.134  0.00  0.00     0.040 H 
ATOM     13  H2  <0> d           0.088  -2.537  -1.913  0.00  0.00     0.040 H 
ATOM     14  H3  <0> d           1.638  -2.521  -1.038  0.00  0.00     0.040 H 
ENDBRANCH   8  11
ENDBRANCH   4   7
ENDBRANCH   1   4
BRANCH   1  15
ATOM     15  N2  <0> d          -0.754   3.419   1.277  0.00  0.00    -0.365 N 
ATOM     16  C8  <0> d          -1.729   4.203   0.736  0.00  0.00    -0.021 A 
ATOM     17  C7  <0> d          -1.395   5.493   0.942  0.00  0.00    -0.067 A 
ATOM     18  H12 <0> d          -2.616   3.852   0.230  0.00  0.00     0.111 H 
ATOM     19  C6  <0> d          -0.169   5.506   1.635  0.00  0.00    -0.067 A 
ATOM     20  H11 <0> d          -1.964   6.358   0.632  0.00  0.00     0.085 H 
ATOM     21  C5  <0> d           0.197   4.223   1.831  0.00  0.00    -0.021 A 
ATOM     22  H10 <0> d           0.376   6.383   1.954  0.00  0.00     0.085 H 
ATOM     23  H9  <0> d           1.091   3.890   2.338  0.00  0.00     0.111 H 
ENDBRANCH   1  15
TORSDOF 4
