REMARK  2 active torsions:
REMARK  status: ('A' for Active; 'I' for Inactive)
REMARK    1  A    between atoms: C1_1  and  N1_2 
REMARK       I    between atoms: N1_2  and  C2_3 
REMARK       I    between atoms: C2_3  and  N2_5 
REMARK    2  A    between atoms: N2_5  and  C3_6 
ROOT
ATOM      1  C3  <0> d           1.105   3.183   0.002  0.00  0.00     0.053 A 
ATOM      2  C4  <0> d          -0.010   3.593  -0.725  0.00  0.00    -0.054 A 
ATOM      3  C5  <0> d          -1.144   2.799  -0.694  0.00  0.00    -0.064 A 
ATOM      4  C6  <0> d          -1.135   1.637   0.055  0.00  0.00     0.002 A 
ATOM      5  N3  <0> d          -0.060   1.274   0.728  0.00  0.00    -0.271 NA
ATOM      6  C7  <0> d           1.039   2.001   0.726  0.00  0.00     0.028 A 
ATOM      7  H6  <0> d           0.009   4.508  -1.299  0.00  0.00     0.087 H 
ATOM      8  H7  <0> d          -2.027   3.086  -1.246  0.00  0.00     0.085 H 
ATOM      9  H8  <0> d          -2.018   1.016   0.086  0.00  0.00     0.114 H 
ATOM     10  H9  <0> d           1.898   1.673   1.294  0.00  0.00     0.118 H 
ENDROOT
BRANCH   1  11
ATOM     11  N2  <0> d           2.275   3.952   0.002  0.00  0.00    -0.308 N 
ATOM     12  C2  <0> d           2.199   5.294  -0.093  0.00  0.00     0.320 C 
ATOM     13  N1  <0> d           3.325   6.027  -0.201  0.00  0.00    -0.347 N 
ATOM     14  O1  <0> d           1.115   5.844  -0.081  0.00  0.00    -0.247 OA
ATOM     15  H4  <0> d           4.190   5.588  -0.210  0.00  0.00     0.163 HD
ATOM     16  H5  <0> d           3.140   3.518   0.069  0.00  0.00     0.170 HD
BRANCH  13  17
ATOM     17  C1  <0> d           3.243   7.486  -0.303  0.00  0.00    -0.017 C 
ATOM     18  H1  <0> d           2.753   7.885   0.585  0.00  0.00     0.056 H 
ATOM     19  H2  <0> d           4.247   7.902  -0.382  0.00  0.00     0.056 H 
ATOM     20  H3  <0> d           2.667   7.756  -1.188  0.00  0.00     0.056 H 
ENDBRANCH  13  17
ENDBRANCH   1  11
TORSDOF 2
