REMARK  3 active torsions:
REMARK  status: ('A' for Active; 'I' for Inactive)
REMARK    1  A    between atoms: C1_1  and  C2_2 
REMARK    2  A    between atoms: C2_2  and  C3_4 
REMARK    3  A    between atoms: C6_7  and  N2_10 
ROOT
ATOM      1  C3  <0> d          -1.262  -0.757   0.010  0.00  0.00     0.102 A 
ATOM      2  C4  <0> d          -1.234  -2.155   0.008  0.00  0.00    -0.049 A 
ATOM      3  C5  <0> d          -2.428  -2.851   0.016  0.00  0.00    -0.054 A 
ATOM      4  C6  <0> d          -3.620  -2.127   0.026  0.00  0.00     0.043 A 
ATOM      5  C7  <0> d          -3.570  -0.731   0.027  0.00  0.00     0.028 A 
ATOM      6  N1  <0> d          -2.419  -0.101   0.025  0.00  0.00    -0.255 NA
ATOM      7  H4  <0> d          -0.293  -2.683   0.000  0.00  0.00     0.087 H 
ATOM      8  H5  <0> d          -2.437  -3.931   0.015  0.00  0.00     0.087 H 
ATOM      9  H6  <0> d          -4.489  -0.165   0.035  0.00  0.00     0.118 H 
ENDROOT
BRANCH   1  10
ATOM     10  C2  <0> d           0.002  -0.004   0.002  0.00  0.00     0.174 C 
ATOM     11  O1  <0> d           1.060  -0.596  -0.011  0.00  0.00    -0.291 OA
BRANCH  10  12
ATOM     12  C1  <0> d          -0.018   1.503   0.010  0.00  0.00    -0.015 C 
ATOM     13  H1  <0> d           1.004   1.880   0.003  0.00  0.00     0.038 H 
ATOM     14  H2  <0> d          -0.545   1.864  -0.873  0.00  0.00     0.038 H 
ATOM     15  H3  <0> d          -0.529   1.854   0.907  0.00  0.00     0.038 H 
ENDBRANCH  10  12
ENDBRANCH   1  10
BRANCH   4  16
ATOM     16  N2  <0> d          -4.842  -2.786   0.034  0.00  0.00    -0.398 N 
ATOM     17  H7  <0> d          -4.871  -3.755   0.033  0.00  0.00     0.156 HD
ATOM     18  H8  <0> d          -5.668  -2.277   0.041  0.00  0.00     0.156 HD
ENDBRANCH   4  16
TORSDOF 3
