REMARK  2 active torsions:
REMARK  status: ('A' for Active; 'I' for Inactive)
REMARK    1  A    between atoms: C1_1  and  C2_2 
REMARK    2  A    between atoms: C4_6  and  N4_9 
ROOT
ATOM      1  C2  <0> d          -0.718   1.572   1.248  0.00  0.00     0.121 A 
ATOM      2  C3  <0> d           0.010   1.813   2.434  0.00  0.00     0.309 A 
ATOM      3  O1  <0> d           1.215   1.632   2.477  0.00  0.00    -0.263 OA
ATOM      4  N1  <0> d          -0.667   2.249   3.521  0.00  0.00    -0.021 NA
ATOM      5  C4  <0> d          -2.012   2.433   3.419  0.00  0.00     0.717 A 
ATOM      6  N2  <0> d          -2.637   2.189   2.280  0.00  0.00    -0.107 N 
ATOM      7  N3  <0> d          -2.013   1.780   1.234  0.00  0.00    -0.159 NA
ATOM      8  H6  <0> d          -3.725   2.336   2.207  0.00  0.00     0.208 HD
ENDROOT
BRANCH   1   9
ATOM      9  C1  <0> d          -0.013   1.086   0.008  0.00  0.00    -0.029 C 
ATOM     10  H1  <0> d           1.061   0.972   0.218  0.00  0.00     0.036 H 
ATOM     11  H2  <0> d          -0.153   1.815  -0.803  0.00  0.00     0.036 H 
ATOM     12  H3  <0> d          -0.432   0.115  -0.295  0.00  0.00     0.036 H 
ENDBRANCH   1   9
BRANCH   5  13
ATOM     13  N4  <0> d          -2.722   2.873   4.503  0.00  0.00    -0.231 N 
ATOM     14  H4  <0> d          -3.809   3.024   4.424  0.00  0.00     0.174 HD
ATOM     15  H5  <0> d          -2.206   3.077   5.452  0.00  0.00     0.174 HD
ENDBRANCH   5  13
TORSDOF 2
