REMARK  9 active torsions:
REMARK  status: ('A' for Active; 'I' for Inactive)
REMARK    1  A    between atoms: C1_1  and  C2_2 
REMARK    2  A    between atoms: C2_2  and  C3_4 
REMARK    3  A    between atoms: C2_2  and  C4_6 
REMARK    4  A    between atoms: C3_4  and  O1_5 
REMARK    5  A    between atoms: C4_6  and  C5_8 
REMARK    6  A    between atoms: C4_6  and  O2_12 
REMARK    7  A    between atoms: C5_8  and  C6_9 
REMARK    8  A    between atoms: C5_8  and  C7_10 
REMARK    9  A    between atoms: C5_8  and  C8_11 
ROOT
ATOM      1  C4  <0> d           2.865   3.719   0.037  0.00  0.00     0.047 C 
ATOM      2  H2  <0> d           3.272   3.308   0.960  0.00  0.00     0.084 H 
ENDROOT
BRANCH   1   3
ATOM      3  C2  <0> d           1.623   2.924  -0.371  0.00  0.00    -0.012 C 
ATOM      4  H1  <0> d           0.754   3.305   0.166  0.00  0.00     0.046 H 
BRANCH   3   5
ATOM      5  C1  <0> d           1.396   3.069  -1.877  0.00  0.00    -0.069 C 
ATOM      6  H3  <0> d           2.248   2.653  -2.415  0.00  0.00     0.028 H 
ATOM      7  H4  <0> d           0.490   2.533  -2.161  0.00  0.00     0.028 H 
ATOM      8  H5  <0> d           1.288   4.124  -2.128  0.00  0.00     0.028 H 
ENDBRANCH   3   5
BRANCH   3   9
ATOM      9  C3  <0> d           1.828   1.447  -0.026  0.00  0.00     0.022 C 
ATOM     10  H6  <0> d           2.077   1.352   1.030  0.00  0.00     0.074 H 
ATOM     11  H7  <0> d           2.640   1.042  -0.629  0.00  0.00     0.074 H 
BRANCH   9  12
ATOM     12  O1  <0> d           0.626   0.723  -0.299  0.00  0.00    -0.400 OA
ATOM     13  H8  <0> d           0.683  -0.222  -0.103  0.00  0.00     0.209 HD
ENDBRANCH   9  12
ENDBRANCH   3   9
ENDBRANCH   1   3
BRANCH   1  14
ATOM     14  C5  <0> d           2.482   5.184   0.256  0.00  0.00    -0.025 C 
BRANCH  14  15
ATOM     15  C6  <0> d           1.541   5.292   1.457  0.00  0.00    -0.067 C 
ATOM     16  H9  <0> d           2.042   4.910   2.347  0.00  0.00     0.028 H 
ATOM     17  H10 <0> d           1.268   6.335   1.613  0.00  0.00     0.028 H 
ATOM     18  H11 <0> d           0.641   4.706   1.268  0.00  0.00     0.028 H 
ENDBRANCH  14  15
BRANCH  14  19
ATOM     19  C7  <0> d           3.744   6.007   0.522  0.00  0.00    -0.067 C 
ATOM     20  H12 <0> d           4.415   5.931  -0.334  0.00  0.00     0.028 H 
ATOM     21  H13 <0> d           3.472   7.051   0.678  0.00  0.00     0.028 H 
ATOM     22  H14 <0> d           4.246   5.625   1.412  0.00  0.00     0.028 H 
ENDBRANCH  14  19
BRANCH  14  23
ATOM     23  C8  <0> d           1.778   5.720  -0.993  0.00  0.00    -0.067 C 
ATOM     24  H15 <0> d           0.801   5.248  -1.090  0.00  0.00     0.028 H 
ATOM     25  H16 <0> d           1.653   6.799  -0.904  0.00  0.00     0.028 H 
ATOM     26  H17 <0> d           2.380   5.495  -1.873  0.00  0.00     0.028 H 
ENDBRANCH  14  23
ENDBRANCH   1  14
BRANCH   1  27
ATOM     27  O2  <0> d           3.847   3.633  -0.998  0.00  0.00    -0.394 OA
ATOM     28  H18 <0> d           3.552   3.982  -1.850  0.00  0.00     0.210 HD
ENDBRANCH   1  27
TORSDOF 9
