REMARK  3 active torsions:
REMARK  status: ('A' for Active; 'I' for Inactive)
REMARK    1  A    between atoms: C1_1  and  S1_2 
REMARK    2  A    between atoms: S1_2  and  C2_4 
REMARK    3  A    between atoms: C6_8  and  N1_10 
ROOT
ATOM      1  C2  <0> d          -0.049   3.845   0.023  0.00  0.00     0.033 A 
ATOM      2  C3  <0> d           1.156   3.166   0.008  0.00  0.00    -0.064 A 
ATOM      3  C4  <0> d           1.174   1.783   0.000  0.00  0.00    -0.080 A 
ATOM      4  C5  <0> d          -0.013   1.076   0.008  0.00  0.00    -0.058 A 
ATOM      5  C6  <0> d          -1.224   1.755   0.017  0.00  0.00     0.026 A 
ATOM      6  C7  <0> d          -1.238   3.144   0.030  0.00  0.00    -0.039 A 
ATOM      7  H4  <0> d           2.085   3.717   0.003  0.00  0.00     0.085 H 
ATOM      8  H5  <0> d           2.116   1.256  -0.011  0.00  0.00     0.083 H 
ATOM      9  H6  <0> d           0.002  -0.004   0.002  0.00  0.00     0.086 H 
ATOM     10  H7  <0> d          -2.179   3.675   0.042  0.00  0.00     0.089 H 
ENDROOT
BRANCH   1  11
ATOM     11  S1  <0> d          -0.066   5.607   0.033  0.00  0.00     0.045 S 
ATOM     12  O1  <0> d          -1.317   5.935   0.620  0.00  0.00    -0.253 OA
BRANCH  11  13
ATOM     13  C1  <0> d          -0.087   6.055  -1.725  0.00  0.00    -0.004 C 
ATOM     14  H1  <0> d          -0.978   5.638  -2.196  0.00  0.00     0.045 H 
ATOM     15  H2  <0> d          -0.099   7.141  -1.823  0.00  0.00     0.045 H 
ATOM     16  H3  <0> d           0.802   5.656  -2.212  0.00  0.00     0.045 H 
ENDBRANCH  11  13
ENDBRANCH   1  11
BRANCH   5  17
ATOM     17  N1  <0> d          -2.426   1.042   0.020  0.00  0.00    -0.399 N 
ATOM     18  H8  <0> d          -2.414   0.072   0.015  0.00  0.00     0.156 HD
ATOM     19  H9  <0> d          -3.271   1.517   0.026  0.00  0.00     0.156 HD
ENDBRANCH   5  17
TORSDOF 3
