REMARK  1 active torsions:
REMARK  status: ('A' for Active; 'I' for Inactive)
REMARK    1  A    between atoms: C1_1  and  C2_2 
ROOT
ATOM      1  C2  <0> d           0.002  -0.004   0.002  0.00  0.00     0.096 A 
ATOM      2  N1  <0> d           0.009  -0.824  -1.022  0.00  0.00    -0.146 NA
ATOM      3  N2  <0> d           0.027  -2.072  -0.810  0.00  0.00    -0.130 NA
ATOM      4  C3  <0> d           0.038  -2.507   0.429  0.00  0.00     0.191 A 
ATOM      5  S1  <0> d           0.029  -1.070   1.304  0.00  0.00    -0.040 SA
ATOM      6 Cl1  <0> d           0.061  -4.142   1.014  0.00  0.00    -0.053 Cl
ENDROOT
BRANCH   1   7
ATOM      7  C1  <0> d          -0.018   1.503   0.010  0.00  0.00    -0.028 C 
ATOM      8  H1  <0> d           1.004   1.880   0.003  0.00  0.00     0.036 H 
ATOM      9  H2  <0> d          -0.545   1.864  -0.873  0.00  0.00     0.036 H 
ATOM     10  H3  <0> d          -0.529   1.854   0.907  0.00  0.00     0.036 H 
ENDBRANCH   1   7
TORSDOF 1
