REMARK  1 active torsions:
REMARK  status: ('A' for Active; 'I' for Inactive)
REMARK    1  A    between atoms: C2_2  and  C3_3 
ROOT
ATOM      1  C1  <0> d           0.018  -1.178  -0.004  0.00  0.00    -0.147 C 
ATOM      2  C2  <0> d           0.002  -0.004   0.002  0.00  0.00    -0.053 C 
ATOM      3  H1  <0> d           0.032  -2.228  -0.010  0.00  0.00     0.167 H 
ENDROOT
BRANCH   2   4
ATOM      4  C3  <0> d          -0.017   1.428   0.010  0.00  0.00     0.117 C 
ATOM      5  O1  <0> d           1.164   2.090   0.002  0.00  0.00    -0.343 OA
ATOM      6  C7  <0> d           1.143   3.475  -0.359  0.00  0.00     0.027 C 
ATOM      7  C6  <0> d           0.030   4.162   0.444  0.00  0.00    -0.042 C 
ATOM      8  H7  <0> d           0.944   3.577  -1.425  0.00  0.00     0.075 H 
ATOM      9  H8  <0> d           2.104   3.930  -0.118  0.00  0.00     0.075 H 
ATOM     10  C5  <0> d          -1.310   3.543   0.031  0.00  0.00    -0.045 C 
ATOM     11  H5  <0> d           0.024   5.230   0.225  0.00  0.00     0.036 H 
ATOM     12  H6  <0> d           0.194   4.006   1.510  0.00  0.00     0.036 H 
ATOM     13  C4  <0> d          -1.190   2.043   0.030  0.00  0.00    -0.062 C 
ATOM     14  H3  <0> d          -1.578   3.888  -0.968  0.00  0.00     0.039 H 
ATOM     15  H4  <0> d          -2.083   3.845   0.739  0.00  0.00     0.039 H 
ATOM     16  H2  <0> d          -2.091   1.448   0.045  0.00  0.00     0.082 H 
ENDBRANCH   2   4
TORSDOF 1
