REMARK  5 active torsions:
REMARK  status: ('A' for Active; 'I' for Inactive)
REMARK    1  A    between atoms: C1_1  and  C2_2 
REMARK    2  A    between atoms: C2_2  and  C3_3 
REMARK    3  A    between atoms: C3_3  and  C4_4 
REMARK    4  A    between atoms: C4_4  and  C5_5 
REMARK       I    between atoms: C5_5  and  N1_7 
REMARK    5  A    between atoms: N1_7  and  C6_8 
ROOT
ATOM      1  C4  <0> d           2.462   0.920  -0.017  0.00  0.00     0.009 C 
ATOM      2  H8  <0> d           2.537   0.289   0.869  0.00  0.00     0.047 H 
ATOM      3  H9  <0> d           2.520   0.299  -0.910  0.00  0.00     0.047 H 
ENDROOT
BRANCH   1   4
ATOM      4  C3  <0> d           3.611   1.930  -0.022  0.00  0.00    -0.058 C 
ATOM      5  H6  <0> d           3.537   2.560  -0.908  0.00  0.00     0.033 H 
ATOM      6  H7  <0> d           3.554   2.551   0.872  0.00  0.00     0.033 H 
BRANCH   4   7
ATOM      7  C2  <0> d           4.946   1.183  -0.039  0.00  0.00    -0.068 C 
ATOM      8  H4  <0> d           5.021   0.552   0.847  0.00  0.00     0.032 H 
ATOM      9  H5  <0> d           5.004   0.562  -0.933  0.00  0.00     0.032 H 
BRANCH   7  10
ATOM     10  C1  <0> d           6.096   2.193  -0.044  0.00  0.00    -0.077 C 
ATOM     11  H1  <0> d           6.021   2.824  -0.930  0.00  0.00     0.027 H 
ATOM     12  H2  <0> d           6.038   2.814   0.850  0.00  0.00     0.027 H 
ATOM     13  H3  <0> d           7.047   1.661  -0.056  0.00  0.00     0.027 H 
ENDBRANCH   7  10
ENDBRANCH   4   7
ENDBRANCH   1   4
BRANCH   1  14
ATOM     14  C5  <0> d           1.147   1.655  -0.000  0.00  0.00     0.217 C 
ATOM     15  O1  <0> d           1.130   2.868   0.007  0.00  0.00    -0.274 OA
ATOM     16  N1  <0> d          -0.011   0.966   0.007  0.00  0.00    -0.365 N 
ATOM     17  H10 <0> d           0.002  -0.004   0.002  0.00  0.00     0.161 HD
BRANCH  16  18
ATOM     18  C6  <0> d          -1.290   1.681   0.017  0.00  0.00    -0.018 C 
ATOM     19  H11 <0> d          -1.352   2.302   0.911  0.00  0.00     0.056 H 
ATOM     20  H12 <0> d          -1.360   2.312  -0.869  0.00  0.00     0.056 H 
ATOM     21  H13 <0> d          -2.108   0.962   0.017  0.00  0.00     0.056 H 
ENDBRANCH  16  18
ENDBRANCH   1  14
TORSDOF 5
