REMARK  0 active torsions:
REMARK  status: ('A' for Active; 'I' for Inactive)
ROOT
ATOM      1  C1  <0> d          -0.019   1.539   0.011  0.00  0.00     0.042 C 
ATOM      2  C2  <0> d           0.002  -0.004   0.002  0.00  0.00     0.066 C 
ATOM      3  H1  <0> d          -0.823  -0.436  -0.564  0.00  0.00     0.060 H 
ATOM      4  C3  <0> d           1.401  -0.319  -0.596  0.00  0.00     0.066 C 
ATOM      5  H2  <0> d           1.350  -0.813  -1.566  0.00  0.00     0.060 H 
ATOM      6  C4  <0> d           2.041  -1.202   0.495  0.00  0.00     0.042 C 
ATOM      7  O1  <0> d           1.321  -0.875   1.719  0.00  0.00    -0.320 OA
ATOM      8  C5  <0> d           0.066  -0.510   1.425  0.00  0.00     0.266 C 
ATOM      9  O2  <0> d          -0.873  -0.574   2.182  0.00  0.00    -0.265 OA
ATOM     10  C6  <0> d           2.113   1.014  -0.639  0.00  0.00     0.266 C 
ATOM     11  O3  <0> d           3.180   1.215  -1.169  0.00  0.00    -0.265 OA
ATOM     12  O4  <0> d           1.382   1.938  -0.001  0.00  0.00    -0.320 OA
ATOM     13  H3  <0> d          -0.527   1.915  -0.877  0.00  0.00     0.076 H 
ATOM     14  H4  <0> d          -0.510   1.905   0.912  0.00  0.00     0.076 H 
ATOM     15  H5  <0> d           3.099  -0.965   0.603  0.00  0.00     0.076 H 
ATOM     16  H6  <0> d           1.912  -2.257   0.252  0.00  0.00     0.076 H 
ENDROOT
TORSDOF 0
