REMARK  3 active torsions:
REMARK  status: ('A' for Active; 'I' for Inactive)
REMARK    1  A    between atoms: C1_1  and  C2_2 
REMARK    2  A    between atoms: C2_2  and  C3_3 
REMARK    3  A    between atoms: C3_3  and  C4_5 
ROOT
ATOM      1  C4  <0> d          -1.651  -1.919   0.007  0.00  0.00     0.078 A 
ATOM      2  C5  <0> d          -0.691  -2.916  -0.001  0.00  0.00    -0.052 A 
ATOM      3  C6  <0> d          -1.370  -4.135  -0.004  0.00  0.00    -0.066 A 
ATOM      4  C7  <0> d          -2.700  -3.871   0.003  0.00  0.00    -0.022 A 
ATOM      5  N1  <0> d          -2.884  -2.535   0.016  0.00  0.00    -0.363 N 
ATOM      6  H1  <0> d          -3.742  -2.083   0.027  0.00  0.00     0.165 HD
ATOM      7  H7  <0> d           0.381  -2.776  -0.005  0.00  0.00     0.087 H 
ATOM      8  H8  <0> d          -0.916  -5.115  -0.010  0.00  0.00     0.085 H 
ATOM      9  H9  <0> d          -3.486  -4.612   0.003  0.00  0.00     0.111 H 
ENDROOT
BRANCH   1  10
ATOM     10  C3  <0> d          -1.412  -0.526   0.013  0.00  0.00     0.175 C 
ATOM     11  O1  <0> d          -2.345   0.251   0.026  0.00  0.00    -0.291 OA
BRANCH  10  12
ATOM     12  C2  <0> d           0.002  -0.004   0.002  0.00  0.00    -0.007 C 
ATOM     13  H5  <0> d           0.512  -0.356  -0.895  0.00  0.00     0.044 H 
ATOM     14  H6  <0> d           0.529  -0.365   0.885  0.00  0.00     0.044 H 
BRANCH  12  15
ATOM     15  C1  <0> d          -0.019   1.526   0.010  0.00  0.00    -0.070 C 
ATOM     16  H2  <0> d           1.004   1.903   0.003  0.00  0.00     0.028 H 
ATOM     17  H3  <0> d          -0.546   1.887  -0.873  0.00  0.00     0.028 H 
ATOM     18  H4  <0> d          -0.529   1.877   0.907  0.00  0.00     0.028 H 
ENDBRANCH  12  15
ENDBRANCH  10  12
ENDBRANCH   1  10
TORSDOF 3
