REMARK  2 active torsions:
REMARK  status: ('A' for Active; 'I' for Inactive)
REMARK    1  A    between atoms: C1_1  and  C2_2 
REMARK    2  A    between atoms: C3_3  and  C5_7 
ROOT
ATOM      1  C2  <0> d           1.129  -0.677  -0.012  0.00  0.00     0.048 A 
ATOM      2  C3  <0> d           2.304   0.033  -0.020  0.00  0.00     0.029 A 
ATOM      3  S1  <0> d           1.675   1.706  -0.005  0.00  0.00    -0.081 SA
ATOM      4  C4  <0> d          -0.016   1.310   0.009  0.00  0.00     0.041 A 
ATOM      5  N1  <0> d           0.002  -0.004   0.002  0.00  0.00    -0.258 NA
ATOM      6  H4  <0> d          -0.867   1.975   0.017  0.00  0.00     0.126 H 
ENDROOT
BRANCH   2   7
ATOM      7  C5  <0> d           3.695  -0.449  -0.035  0.00  0.00    -0.073 C 
ATOM      8  C6  <0> d           4.700   0.421  -0.040  0.00  0.00    -0.120 C 
ATOM      9  H6  <0> d           4.496   1.482  -0.033  0.00  0.00     0.066 H 
ATOM     10  H7  <0> d           5.720   0.067  -0.051  0.00  0.00     0.066 H 
ATOM     11  H5  <0> d           3.899  -1.510  -0.042  0.00  0.00     0.084 H 
ENDBRANCH   2   7
BRANCH   1  12
ATOM     12  C1  <0> d           1.132  -2.184  -0.020  0.00  0.00    -0.034 C 
ATOM     13  H1  <0> d           1.124  -2.543  -1.049  0.00  0.00     0.035 H 
ATOM     14  H2  <0> d           2.028  -2.548   0.484  0.00  0.00     0.035 H 
ATOM     15  H3  <0> d           0.248  -2.553   0.500  0.00  0.00     0.035 H 
ENDBRANCH   1  12
TORSDOF 2
