REMARK  5 active torsions:
REMARK  status: ('A' for Active; 'I' for Inactive)
REMARK    1  A    between atoms: C1_1  and  C2_2 
REMARK    2  A    between atoms: C2_2  and  C3_3 
REMARK    3  A    between atoms: C3_3  and  C4_4 
REMARK    4  A    between atoms: C4_4  and  C5_5 
REMARK    5  A    between atoms: C5_5  and  C7_7 
ROOT
ATOM      1  C4  <0> d           0.763  -2.041   1.233  0.00  0.00    -0.046 C 
ATOM      2  H8  <0> d          -0.260  -2.418   1.241  0.00  0.00     0.039 H 
ATOM      3  H9  <0> d           1.273  -2.392   0.336  0.00  0.00     0.039 H 
ENDROOT
BRANCH   1   4
ATOM      4  C3  <0> d           0.742  -0.511   1.242  0.00  0.00    -0.062 C 
ATOM      5  H6  <0> d           1.765  -0.134   1.234  0.00  0.00     0.033 H 
ATOM      6  H7  <0> d           0.232  -0.159   2.138  0.00  0.00     0.033 H 
BRANCH   4   7
ATOM      7  C2  <0> d           0.002  -0.004   0.002  0.00  0.00    -0.068 C 
ATOM      8  H4  <0> d          -1.020  -0.381   0.010  0.00  0.00     0.032 H 
ATOM      9  H5  <0> d           0.512  -0.356  -0.895  0.00  0.00     0.032 H 
BRANCH   7  10
ATOM     10  C1  <0> d          -0.019   1.526   0.010  0.00  0.00    -0.077 C 
ATOM     11  H1  <0> d           1.004   1.903   0.003  0.00  0.00     0.027 H 
ATOM     12  H2  <0> d          -0.546   1.887  -0.873  0.00  0.00     0.027 H 
ATOM     13  H3  <0> d          -0.529   1.877   0.907  0.00  0.00     0.027 H 
ENDBRANCH   7  10
ENDBRANCH   4   7
ENDBRANCH   1   4
BRANCH   1  14
ATOM     14  C5  <0> d           1.492  -2.540   2.454  0.00  0.00    -0.093 C 
ATOM     15  C6  <0> d           0.820  -2.867   3.530  0.00  0.00    -0.119 C 
ATOM     16  H10 <0> d           1.342  -3.224   4.405  0.00  0.00     0.067 H 
ATOM     17  H11 <0> d          -0.257  -2.778   3.542  0.00  0.00     0.067 H 
BRANCH  14  18
ATOM     18  C7  <0> d           2.994  -2.663   2.437  0.00  0.00    -0.055 C 
ATOM     19  H12 <0> d           3.373  -2.349   1.465  0.00  0.00     0.033 H 
ATOM     20  H13 <0> d           3.419  -2.030   3.216  0.00  0.00     0.033 H 
ATOM     21  H14 <0> d           3.275  -3.701   2.618  0.00  0.00     0.033 H 
ENDBRANCH  14  18
ENDBRANCH   1  14
TORSDOF 5
