REMARK  1 active torsions:
REMARK  status: ('A' for Active; 'I' for Inactive)
REMARK    1  A    between atoms: C3_4  and  C6_8 
ROOT
ATOM      1  C1  <0> d           1.217   5.840   0.022  0.00  0.00    -0.013 A 
ATOM      2  C2  <0> d           0.079   5.114   0.029  0.00  0.00     0.023 A 
ATOM      3  O1  <0> d           0.098   3.779   0.016  0.00  0.00    -0.316 OA
ATOM      4  C3  <0> d           1.238   3.070   0.007  0.00  0.00     0.154 A 
ATOM      5  C4  <0> d           2.443   3.696  -0.001  0.00  0.00     0.005 A 
ATOM      6  C5  <0> d           2.464   5.165   0.006  0.00  0.00     0.176 A 
ATOM      7  O2  <0> d           3.517   5.782  -0.001  0.00  0.00    -0.288 OA
ATOM      8  H1  <0> d           1.179   6.920   0.028  0.00  0.00     0.092 H 
ATOM      9  H2  <0> d          -0.871   5.627   0.041  0.00  0.00     0.123 H 
ATOM     10  H3  <0> d           3.362   3.129  -0.014  0.00  0.00     0.094 H 
ENDROOT
BRANCH   4  11
ATOM     11  C6  <0> d           1.181   1.591  -0.001  0.00  0.00     0.234 C 
ATOM     12  O3  <0> d           2.208   0.943  -0.014  0.00  0.00    -0.642 OA
ATOM     13  O4  <0> d          -0.011   0.963   0.007  0.00  0.00    -0.642 OA
ENDBRANCH   4  11
TORSDOF 1
