REMARK  4 active torsions:
REMARK  status: ('A' for Active; 'I' for Inactive)
REMARK    1  A    between atoms: C1_1  and  O1_2 
REMARK    2  A    between atoms: O1_2  and  C2_3 
REMARK    3  A    between atoms: C5_7  and  O3_10 
REMARK    4  A    between atoms: O3_10  and  C6_11 
ROOT
ATOM      1  C2  <0> d          -0.013   1.086   0.008  0.00  0.00     0.151 C 
ATOM      2  H1  <0> d           0.002  -0.004   0.002  0.00  0.00     0.136 H 
ATOM      3  C3  <0> d          -0.779   1.604  -1.188  0.00  0.00    -0.050 C 
ATOM      4  C4  <0> d          -1.559   2.581  -0.787  0.00  0.00    -0.050 C 
ATOM      5  C5  <0> d          -1.359   2.772   0.699  0.00  0.00     0.151 C 
ATOM      6  H2  <0> d          -0.717   3.633   0.884  0.00  0.00     0.136 H 
ATOM      7  O2  <0> d          -0.721   1.567   1.166  0.00  0.00    -0.325 OA
ATOM      8  H6  <0> d          -0.698   1.234  -2.199  0.00  0.00     0.084 H 
ATOM      9  H7  <0> d          -2.230   3.151  -1.413  0.00  0.00     0.084 H 
ENDROOT
BRANCH   1  10
ATOM     10  O1  <0> d           1.322   1.597  -0.002  0.00  0.00    -0.363 OA
BRANCH  10  11
ATOM     11  C1  <0> d           2.178   1.004   0.976  0.00  0.00     0.007 C 
ATOM     12  H3  <0> d           3.172   1.446   0.904  0.00  0.00     0.066 H 
ATOM     13  H4  <0> d           1.772   1.185   1.972  0.00  0.00     0.066 H 
ATOM     14  H5  <0> d           2.244  -0.069   0.800  0.00  0.00     0.066 H 
ENDBRANCH  10  11
ENDBRANCH   1  10
BRANCH   5  15
ATOM     15  O3  <0> d          -2.620   2.949   1.347  0.00  0.00    -0.363 OA
BRANCH  15  16
ATOM     16  C6  <0> d          -2.519   3.359   2.712  0.00  0.00     0.007 C 
ATOM     17  H8  <0> d          -3.519   3.471   3.133  0.00  0.00     0.066 H 
ATOM     18  H9  <0> d          -1.969   2.608   3.278  0.00  0.00     0.066 H 
ATOM     19  H10 <0> d          -1.993   4.312   2.767  0.00  0.00     0.066 H 
ENDBRANCH  15  16
ENDBRANCH   5  15
TORSDOF 4
