REMARK  4 active torsions:
REMARK  status: ('A' for Active; 'I' for Inactive)
REMARK    1  A    between atoms: C1_1  and  C2_2 
REMARK    2  A    between atoms: C3_3  and  C5_7 
REMARK    3  A    between atoms: C5_7  and  O2_9 
REMARK    4  A    between atoms: O2_9  and  C6_10 
ROOT
ATOM      1  C2  <0> d           1.123  -0.678  -0.012  0.00  0.00     0.054 A 
ATOM      2  C3  <0> d           2.309   0.043  -0.020  0.00  0.00     0.105 A 
ATOM      3  S1  <0> d           1.674   1.713  -0.005  0.00  0.00    -0.075 SA
ATOM      4  C4  <0> d          -0.016   1.312   0.009  0.00  0.00     0.041 A 
ATOM      5  N1  <0> d           0.002  -0.004   0.002  0.00  0.00    -0.257 NA
ATOM      6  H4  <0> d          -0.868   1.976   0.017  0.00  0.00     0.126 H 
ENDROOT
BRANCH   2   7
ATOM      7  C5  <0> d           3.694  -0.433  -0.035  0.00  0.00     0.301 C 
ATOM      8  O1  <0> d           3.928  -1.627  -0.043  0.00  0.00    -0.259 OA
BRANCH   7   9
ATOM      9  O2  <0> d           4.712   0.453  -0.040  0.00  0.00    -0.322 OA
BRANCH   9  10
ATOM     10  C6  <0> d           6.058  -0.090  -0.055  0.00  0.00     0.013 C 
ATOM     11  H5  <0> d           6.211  -0.707   0.831  0.00  0.00     0.067 H 
ATOM     12  H6  <0> d           6.195  -0.698  -0.949  0.00  0.00     0.067 H 
ATOM     13  H7  <0> d           6.779   0.728  -0.058  0.00  0.00     0.067 H 
ENDBRANCH   9  10
ENDBRANCH   7   9
ENDBRANCH   2   7
BRANCH   1  14
ATOM     14  C1  <0> d           1.126  -2.185  -0.020  0.00  0.00    -0.034 C 
ATOM     15  H1  <0> d           1.117  -2.543  -1.049  0.00  0.00     0.035 H 
ATOM     16  H2  <0> d           2.022  -2.549   0.484  0.00  0.00     0.035 H 
ATOM     17  H3  <0> d           0.242  -2.553   0.500  0.00  0.00     0.035 H 
ENDBRANCH   1  14
TORSDOF 4
