REMARK  2 active torsions:
REMARK  status: ('A' for Active; 'I' for Inactive)
REMARK    1  A    between atoms: C1_1  and  C2_2 
REMARK    2  A    between atoms: C5_5  and  O1_7 
ROOT
ATOM      1  C2  <0> d           0.034  -2.658  -0.483  0.00  0.00    -0.019 A 
ATOM      2  C3  <0> d           0.040  -2.227   0.801  0.00  0.00    -0.068 A 
ATOM      3  C4  <0> d           0.024  -0.867   1.054  0.00  0.00    -0.043 A 
ATOM      4  C5  <0> d           0.002  -0.004   0.002  0.00  0.00     0.107 A 
ATOM      5  S1  <0> d          -0.004  -1.121  -1.391  0.00  0.00    -0.071 SA
ATOM      6  H4  <0> d           0.058  -2.935   1.616  0.00  0.00     0.085 H 
ATOM      7  H5  <0> d           0.028  -0.496   2.068  0.00  0.00     0.088 H 
ENDROOT
BRANCH   1   8
ATOM      8  C1  <0> d           0.047  -4.070  -1.009  0.00  0.00    -0.045 C 
ATOM      9  H1  <0> d          -0.977  -4.424  -1.126  0.00  0.00     0.034 H 
ATOM     10  H2  <0> d           0.553  -4.093  -1.975  0.00  0.00     0.034 H 
ATOM     11  H3  <0> d           0.576  -4.714  -0.307  0.00  0.00     0.034 H 
ENDBRANCH   1   8
BRANCH   4  12
ATOM     12  O1  <0> d          -0.016   1.355   0.009  0.00  0.00    -0.354 OA
ATOM     13  H6  <0> d           0.862   1.760   0.003  0.00  0.00     0.218 HD
ENDBRANCH   4  12
TORSDOF 2
