REMARK  1 active torsions:
REMARK  status: ('A' for Active; 'I' for Inactive)
REMARK    1  A    between atoms: C7_7  and  O3_12 
ROOT
ATOM      1  C1  <0> d          -0.013   1.076   0.008  0.00  0.00    -0.082 A 
ATOM      2  C2  <0> d           1.178   1.782   0.000  0.00  0.00    -0.082 A 
ATOM      3  C3  <0> d           1.169   3.161   0.008  0.00  0.00    -0.066 A 
ATOM      4  C4  <0> d          -0.046   3.848   0.024  0.00  0.00     0.050 A 
ATOM      5  C5  <0> d          -1.242   3.125   0.031  0.00  0.00     0.013 A 
ATOM      6  C6  <0> d          -1.222   1.750   0.017  0.00  0.00    -0.071 A 
ATOM      7  C7  <0> d          -2.354   4.144   0.047  0.00  0.00     0.165 A 
ATOM      8  H1  <0> d          -2.976   4.033  -0.841  0.00  0.00     0.137 H 
ATOM      9  O1  <0> d          -1.714   5.450   0.048  0.00  0.00    -0.281 OA
ATOM     10  C8  <0> d          -0.380   5.283   0.035  0.00  0.00     0.296 A 
ATOM     11  O2  <0> d           0.432   6.186   0.033  0.00  0.00    -0.259 OA
ATOM     12  H2  <0> d           0.002  -0.004   0.002  0.00  0.00     0.083 H 
ATOM     13  H3  <0> d           2.118   1.250  -0.011  0.00  0.00     0.083 H 
ATOM     14  H4  <0> d           2.100   3.708   0.002  0.00  0.00     0.085 H 
ATOM     15  H5  <0> d          -2.150   1.196   0.019  0.00  0.00     0.084 H 
ENDROOT
BRANCH   7  16
ATOM     16  O3  <0> d          -3.147   3.986   1.225  0.00  0.00    -0.366 OA
ATOM     17  H6  <0> d          -3.879   4.614   1.293  0.00  0.00     0.213 HD
ENDBRANCH   7  16
TORSDOF 1
