REMARK  2 active torsions:
REMARK  status: ('A' for Active; 'I' for Inactive)
REMARK    1  A    between atoms: C4_4  and  C7_7 
REMARK    2  A    between atoms: C4_4  and  O1_10 
ROOT
ATOM      1  C7  <0> d           2.040   1.127  -1.261  0.00  0.00     0.043 C 
ATOM      2  C8  <0> d           2.176  -0.338  -1.270  0.00  0.00     0.062 C 
ATOM      3  N1  <0> d           2.281  -1.469  -1.277  0.00  0.00    -0.197 NA
ATOM      4  H11 <0> d           1.481   1.449  -2.152  0.00  0.00     0.059 H 
ATOM      5  H12 <0> d           3.038   1.589  -1.268  0.00  0.00     0.059 H 
ENDROOT
BRANCH   1   6
ATOM      6  C4  <0> d           1.286   1.562  -0.002  0.00  0.00     0.070 C 
ATOM      7  C3  <0> d           1.145   3.085   0.008  0.00  0.00    -0.035 C 
ATOM      8  C2  <0> d           0.392   3.519   1.266  0.00  0.00    -0.062 C 
ATOM      9  H5  <0> d           0.586   3.407  -0.883  0.00  0.00     0.037 H 
ATOM     10  H6  <0> d           2.144   3.546   0.001  0.00  0.00     0.037 H 
ATOM     11  C1  <0> d           1.169   3.072   2.506  0.00  0.00    -0.065 C 
ATOM     12  H3  <0> d          -0.607   3.058   1.274  0.00  0.00     0.033 H 
ATOM     13  H4  <0> d           0.290   4.615   1.273  0.00  0.00     0.033 H 
ATOM     14  C6  <0> d           1.310   1.548   2.497  0.00  0.00    -0.062 C 
ATOM     15  H1  <0> d           0.627   3.384   3.411  0.00  0.00     0.033 H 
ATOM     16  H2  <0> d           2.167   3.533   2.499  0.00  0.00     0.033 H 
ATOM     17  C5  <0> d           2.064   1.114   1.238  0.00  0.00    -0.035 C 
ATOM     18  H9  <0> d           1.869   1.226   3.388  0.00  0.00     0.033 H 
ATOM     19  H10 <0> d           0.311   1.087   2.504  0.00  0.00     0.033 H 
ATOM     20  H7  <0> d           2.165   0.019   1.231  0.00  0.00     0.037 H 
ATOM     21  H8  <0> d           3.062   1.575   1.231  0.00  0.00     0.037 H 
BRANCH   6  22
ATOM     22  O1  <0> d          -0.011   0.963   0.007  0.00  0.00    -0.389 OA
ATOM     23  H13 <0> d          -0.111  -0.133   0.002  0.00  0.00     0.210 HD
ENDBRANCH   6  22
ENDBRANCH   1   6
TORSDOF 2
