REMARK  1 active torsions:
REMARK  status: ('A' for Active; 'I' for Inactive)
REMARK    1  A    between atoms: C3_3  and  O1_10 
ROOT
ATOM      1  C1  <0> d           0.002  -0.004   0.002  0.00  0.00    -0.077 A 
ATOM      2  C2  <0> d           1.203  -0.688  -0.013  0.00  0.00    -0.049 A 
ATOM      3  C3  <0> d           2.401   0.009  -0.021  0.00  0.00     0.089 A 
ATOM      4  C4  <0> d           2.389   1.411  -0.013  0.00  0.00     0.116 A 
ATOM      5  C5  <0> d           1.167   2.092   0.002  0.00  0.00     0.139 A 
ATOM      6  C6  <0> d          -0.017   1.379   0.010  0.00  0.00    -0.044 A 
ATOM      7  F1  <0> d           1.145   3.443   0.009  0.00  0.00    -0.204 F 
ATOM      8  C7  <0> d           3.621   2.142  -0.021  0.00  0.00     0.105 C 
ATOM      9  N1  <0> d           4.598   2.721  -0.028  0.00  0.00    -0.191 NA
ATOM     10  H1  <0> d          -0.928  -0.553   0.008  0.00  0.00     0.083 H 
ATOM     11  H2  <0> d           1.208  -1.768  -0.019  0.00  0.00     0.087 H 
ATOM     12  H3  <0> d          -0.960   1.905   0.017  0.00  0.00     0.088 H 
ENDROOT
BRANCH   3  13
ATOM     13  O1  <0> d           3.580  -0.663  -0.035  0.00  0.00    -0.359 OA
ATOM     14  H4  <0> d           3.913  -0.853  -0.923  0.00  0.00     0.217 HD
ENDBRANCH   3  13
TORSDOF 1
