REMARK  1 active torsions:
REMARK  status: ('A' for Active; 'I' for Inactive)
REMARK    1  A    between atoms: C3_3  and  C6_7 
ROOT
ATOM      1  C1  <0> d          -0.013   1.076   0.008  0.00  0.00    -0.065 A 
ATOM      2  C2  <0> d           1.174   1.794   0.001  0.00  0.00    -0.069 A 
ATOM      3  C3  <0> d           1.107   3.179   0.009  0.00  0.00     0.023 A 
ATOM      4  C4  <0> d          -0.132   3.793   0.024  0.00  0.00     0.013 A 
ATOM      5  N1  <0> d          -1.239   3.078   0.030  0.00  0.00    -0.272 NA
ATOM      6  C5  <0> d          -1.214   1.759   0.017  0.00  0.00     0.002 A 
ATOM      7  H1  <0> d           0.002  -0.004   0.002  0.00  0.00     0.085 H 
ATOM      8  H2  <0> d           2.127   1.287  -0.012  0.00  0.00     0.084 H 
ATOM      9  H3  <0> d          -0.193   4.871   0.030  0.00  0.00     0.115 H 
ATOM     10  H4  <0> d          -2.142   1.207   0.018  0.00  0.00     0.114 H 
ENDROOT
BRANCH   3  11
ATOM     11  C6  <0> d           2.368   4.004   0.002  0.00  0.00     0.235 C 
ATOM     12  F1  <0> d           3.129   3.701   1.135  0.00  0.00    -0.209 F 
ATOM     13  F2  <0> d           3.108   3.713  -1.149  0.00  0.00    -0.209 F 
ATOM     14  H5  <0> d           2.183   5.088   0.009  0.00  0.00     0.153 H 
ENDBRANCH   3  11
TORSDOF 1
