REMARK  3 active torsions:
REMARK  status: ('A' for Active; 'I' for Inactive)
REMARK    1  A    between atoms: C1_1  and  C2_2 
REMARK    2  A    between atoms: C2_2  and  C3_3 
REMARK    3  A    between atoms: C5_8  and  C6_9 
ROOT
ATOM      1  C3  <0> d           1.069   1.888   0.002  0.00  0.00    -0.016 A 
ATOM      2  C4  <0> d          -0.013   1.076   0.008  0.00  0.00     0.004 A 
ATOM      3  N1  <0> d          -1.113   1.857   0.017  0.00  0.00    -0.289 N 
ATOM      4  H1  <0> d          -2.061   1.537   0.017  0.00  0.00     0.188 HD
ATOM      5  N2  <0> d          -0.694   3.193   0.025  0.00  0.00    -0.180 NA
ATOM      6  C5  <0> d           0.614   3.211   0.013  0.00  0.00     0.058 A 
ATOM      7  H7  <0> d           0.002  -0.004   0.002  0.00  0.00     0.114 H 
ENDROOT
BRANCH   1   8
ATOM      8  C2  <0> d           2.510   1.446  -0.014  0.00  0.00    -0.041 C 
ATOM      9  H5  <0> d           2.580   0.452  -0.454  0.00  0.00     0.039 H 
ATOM     10  H6  <0> d           3.099   2.147  -0.606  0.00  0.00     0.039 H 
BRANCH   8  11
ATOM     11  C1  <0> d           3.048   1.410   1.418  0.00  0.00    -0.072 C 
ATOM     12  H2  <0> d           4.090   1.091   1.407  0.00  0.00     0.028 H 
ATOM     13  H3  <0> d           2.978   2.405   1.858  0.00  0.00     0.028 H 
ATOM     14  H4  <0> d           2.459   0.709   2.010  0.00  0.00     0.028 H 
ENDBRANCH   8  11
ENDBRANCH   1   8
BRANCH   6  15
ATOM     15  C6  <0> d           1.481   4.444   0.010  0.00  0.00    -0.033 C 
ATOM     16  H8  <0> d           1.680   4.746  -1.018  0.00  0.00     0.035 H 
ATOM     17  H9  <0> d           0.967   5.250   0.532  0.00  0.00     0.035 H 
ATOM     18  H10 <0> d           2.423   4.227   0.513  0.00  0.00     0.035 H 
ENDBRANCH   6  15
TORSDOF 3
