REMARK  0 active torsions:
REMARK  status: ('A' for Active; 'I' for Inactive)
ROOT
ATOM      1  C1  <0> d          -0.013   1.086   0.008  0.00  0.00     0.077 C 
ATOM      2  C2  <0> d          -0.955   1.691  -1.014  0.00  0.00     0.173 C 
ATOM      3  O1  <0> d          -0.898   2.039  -2.169  0.00  0.00    -0.293 OA
ATOM      4  C3  <0> d          -2.002   1.657   0.082  0.00  0.00     0.077 C 
ATOM      5  O2  <0> d          -0.889   1.650   1.002  0.00  0.00    -0.376 OA
ATOM      6  H1  <0> d           0.997   1.504   0.130  0.00  0.00     0.086 H 
ATOM      7  H2  <0> d           0.026  -0.007   0.131  0.00  0.00     0.086 H 
ATOM      8  H3  <0> d          -2.640   2.550   0.008  0.00  0.00     0.086 H 
ATOM      9  H4  <0> d          -2.621   0.754  -0.029  0.00  0.00     0.086 H 
ENDROOT
TORSDOF 0
