REMARK  2 active torsions:
REMARK  status: ('A' for Active; 'I' for Inactive)
REMARK    1  A    between atoms: C1_1  and  N1_2 
REMARK    2  A    between atoms: C4_7  and  N3_8 
ROOT
ATOM      1  N1  <0> d          -0.721   1.571  -1.179  0.00  0.00    -0.212 N 
ATOM      2  C2  <0> d          -0.961   2.976  -1.558  0.00  0.00     0.087 A 
ATOM      3  C3  <0> d          -1.730   2.857  -2.859  0.00  0.00     0.278 A 
ATOM      4  O1  <0> d          -2.147   3.768  -3.548  0.00  0.00    -0.269 OA
ATOM      5  N2  <0> d          -1.854   1.554  -3.094  0.00  0.00    -0.027 NA
ATOM      6  C4  <0> d          -1.288   0.818  -2.161  0.00  0.00     0.699 A 
ATOM      7  H4  <0> d          -1.562   3.481  -0.801  0.00  0.00     0.079 H 
ATOM      8  H5  <0> d          -0.018   3.499  -1.714  0.00  0.00     0.079 H 
ENDROOT
BRANCH   1   9
ATOM      9  C1  <0> d          -0.013   1.086   0.008  0.00  0.00    -0.002 C 
ATOM     10  H1  <0> d           0.002  -0.004   0.002  0.00  0.00     0.057 H 
ATOM     11  H2  <0> d           1.010   1.463   0.000  0.00  0.00     0.057 H 
ATOM     12  H3  <0> d          -0.523   1.437   0.905  0.00  0.00     0.057 H 
ENDBRANCH   1   9
BRANCH   6  13
ATOM     13  N3  <0> d          -1.273  -0.544  -2.175  0.00  0.00    -0.233 N 
ATOM     14  H7  <0> d          -0.842  -1.032  -1.456  0.00  0.00     0.174 HD
ATOM     15  H6  <0> d          -1.695  -1.026  -2.904  0.00  0.00     0.174 HD
ENDBRANCH   6  13
TORSDOF 2
