REMARK  3 active torsions:
REMARK  status: ('A' for Active; 'I' for Inactive)
REMARK    1  A    between atoms: C1_1  and  C2_2 
REMARK    2  A    between atoms: C4_4  and  C8_9 
REMARK    3  A    between atoms: C7_7  and  N1_8 
ROOT
ATOM      1  C8  <0> d           0.028  -2.793  -2.445  0.00  0.00    -0.078 C 
ATOM      2  C9  <0> d           0.031  -3.376  -3.464  0.00  0.00    -0.149 C 
ATOM      3  H9  <0> d           0.033  -3.898  -4.375  0.00  0.00     0.166 H 
ENDROOT
BRANCH   1   4
ATOM      4  C4  <0> d           0.025  -2.082  -1.203  0.00  0.00     0.017 A 
ATOM      5  C3  <0> d           0.006  -0.686  -1.196  0.00  0.00    -0.057 A 
ATOM      6  C2  <0> d           0.002  -0.004   0.002  0.00  0.00    -0.034 A 
ATOM      7  H4  <0> d          -0.006  -0.141  -2.128  0.00  0.00     0.086 H 
ATOM      8  C7  <0> d           0.023  -0.705   1.203  0.00  0.00     0.031 A 
ATOM      9  C6  <0> d           0.036  -2.095   1.199  0.00  0.00    -0.056 A 
ATOM     10  C5  <0> d           0.040  -2.783   0.005  0.00  0.00    -0.063 A 
ATOM     11  H6  <0> d           0.048  -2.637   2.133  0.00  0.00     0.087 H 
ATOM     12  H5  <0> d           0.054  -3.863   0.003  0.00  0.00     0.085 H 
BRANCH   6  13
ATOM     13  C1  <0> d          -0.018   1.503   0.010  0.00  0.00    -0.049 C 
ATOM     14  H1  <0> d           1.004   1.880   0.003  0.00  0.00     0.033 H 
ATOM     15  H2  <0> d          -0.545   1.864  -0.873  0.00  0.00     0.033 H 
ATOM     16  H3  <0> d          -0.529   1.854   0.907  0.00  0.00     0.033 H 
ENDBRANCH   6  13
BRANCH   8  17
ATOM     17  N1  <0> d           0.025  -0.012   2.413  0.00  0.00    -0.399 N 
ATOM     18  H7  <0> d           0.013   0.958   2.417  0.00  0.00     0.156 HD
ATOM     19  H8  <0> d           0.040  -0.500   3.252  0.00  0.00     0.156 HD
ENDBRANCH   8  17
ENDBRANCH   1   4
TORSDOF 3
