REMARK  2 active torsions:
REMARK  status: ('A' for Active; 'I' for Inactive)
REMARK    1  A    between atoms: C1_1  and  C2_2 
REMARK    2  A    between atoms: C6_6  and  C7_8 
ROOT
ATOM      1  C2  <0> d          -0.018   1.503   0.010  0.00  0.00     0.031 A 
ATOM      2  C3  <0> d           1.174   2.202   0.003  0.00  0.00    -0.058 A 
ATOM      3  C4  <0> d           1.145   3.588   0.010  0.00  0.00    -0.058 A 
ATOM      4  C5  <0> d          -0.089   4.222   0.026  0.00  0.00     0.058 A 
ATOM      5  C6  <0> d          -1.240   3.455   0.033  0.00  0.00     0.052 A 
ATOM      6  N1  <0> d          -1.173   2.139   0.019  0.00  0.00    -0.257 NA
ATOM      7 Cl1  <0> d          -0.187   5.955   0.035  0.00  0.00    -0.082 Cl
ATOM      8  H4  <0> d           2.117   1.675  -0.009  0.00  0.00     0.086 H 
ATOM      9  H5  <0> d           2.061   4.160   0.005  0.00  0.00     0.086 H 
ENDROOT
BRANCH   1  10
ATOM     10  C1  <0> d           0.002  -0.004   0.002  0.00  0.00    -0.035 C 
ATOM     11  H1  <0> d           1.044  -0.357  -0.005  0.00  0.00     0.035 H 
ATOM     12  H2  <0> d          -0.516  -0.373  -0.896  0.00  0.00     0.035 H 
ATOM     13  H3  <0> d          -0.507  -0.383   0.901  0.00  0.00     0.035 H 
ENDBRANCH   1  10
BRANCH   5  14
ATOM     14  C7  <0> d          -2.587   4.133   0.049  0.00  0.00    -0.034 C 
ATOM     15  H6  <0> d          -3.380   3.371   0.052  0.00  0.00     0.035 H 
ATOM     16  H7  <0> d          -2.689   4.766  -0.845  0.00  0.00     0.035 H 
ATOM     17  H8  <0> d          -2.672   4.756   0.951  0.00  0.00     0.035 H 
ENDBRANCH   5  14
TORSDOF 2
