REMARK  1 active torsions:
REMARK  status: ('A' for Active; 'I' for Inactive)
REMARK    1  A    between atoms: C1_1  and  C2_2 
ROOT
ATOM      1  C2  <0> d          -3.674   2.871   0.035  0.00  0.00    -0.020 A 
ATOM      2  C3  <0> d          -2.627   3.709   0.048  0.00  0.00    -0.059 A 
ATOM      3  C4  <0> d          -1.278   3.164   0.032  0.00  0.00    -0.018 A 
ATOM      4  C5  <0> d          -0.043   3.855   0.023  0.00  0.00    -0.072 A 
ATOM      5  C6  <0> d           1.134   3.175   0.008  0.00  0.00    -0.082 A 
ATOM      6  C7  <0> d           1.171   1.787   0.001  0.00  0.00    -0.082 A 
ATOM      7  C8  <0> d          -0.013   1.076   0.008  0.00  0.00    -0.066 A 
ATOM      8  C9  <0> d          -1.213   1.754   0.017  0.00  0.00     0.015 A 
ATOM      9  S1  <0> d          -2.916   1.258   0.023  0.00  0.00    -0.095 SA
ATOM     10  H4  <0> d          -2.784   4.778   0.055  0.00  0.00     0.086 H 
ATOM     11  H5  <0> d          -0.036   4.935   0.029  0.00  0.00     0.084 H 
ATOM     12  H6  <0> d           2.062   3.728   0.002  0.00  0.00     0.083 H 
ATOM     13  H7  <0> d           2.118   1.268  -0.012  0.00  0.00     0.083 H 
ATOM     14  H8  <0> d           0.002  -0.004   0.002  0.00  0.00     0.085 H 
ENDROOT
BRANCH   1  15
ATOM     15  C1  <0> d          -5.142   3.212   0.044  0.00  0.00    -0.045 C 
ATOM     16  H1  <0> d          -5.728   2.294   0.042  0.00  0.00     0.034 H 
ATOM     17  H2  <0> d          -5.375   3.790   0.939  0.00  0.00     0.034 H 
ATOM     18  H3  <0> d          -5.384   3.800  -0.841  0.00  0.00     0.034 H 
ENDBRANCH   1  15
TORSDOF 1
