REMARK  4 active torsions:
REMARK  status: ('A' for Active; 'I' for Inactive)
REMARK    1  A    between atoms: C1_1  and  C2_2 
REMARK    2  A    between atoms: C2_2  and  C3_3 
REMARK    3  A    between atoms: C3_3  and  N1_4 
REMARK    4  A    between atoms: C4_5  and  C7_10 
ROOT
ATOM      1  N1  <0> d          -1.413  -1.998   0.005  0.00  0.00    -0.337 N 
ATOM      2  C4  <0> d          -1.404  -2.990  -1.063  0.00  0.00     0.106 A 
ATOM      3  H1  <0> d          -0.498  -2.966  -1.670  0.00  0.00     0.090 H 
ATOM      4  C5  <0> d          -1.385  -4.069   0.012  0.00  0.00     0.038 A 
ATOM      5  C6  <0> d          -1.392  -2.919   0.976  0.00  0.00     0.223 A 
ATOM      6  O1  <0> d          -1.381  -2.850   2.187  0.00  0.00    -0.273 OA
ATOM      7  H9  <0> d          -2.287  -4.681   0.041  0.00  0.00     0.051 H 
ATOM      8  H10 <0> d          -0.467  -4.656   0.035  0.00  0.00     0.051 H 
ENDROOT
BRANCH   1   9
ATOM      9  C3  <0> d          -1.433  -0.534   0.013  0.00  0.00    -0.002 C 
ATOM     10  H7  <0> d          -1.944  -0.182   0.910  0.00  0.00     0.064 H 
ATOM     11  H8  <0> d          -1.960  -0.173  -0.870  0.00  0.00     0.064 H 
BRANCH   9  12
ATOM     12  C2  <0> d           0.002  -0.004   0.002  0.00  0.00    -0.053 C 
ATOM     13  H5  <0> d           0.512  -0.356  -0.895  0.00  0.00     0.034 H 
ATOM     14  H6  <0> d           0.529  -0.365   0.885  0.00  0.00     0.034 H 
BRANCH  12  15
ATOM     15  C1  <0> d          -0.019   1.526   0.010  0.00  0.00    -0.075 C 
ATOM     16  H2  <0> d           1.004   1.903   0.003  0.00  0.00     0.027 H 
ATOM     17  H3  <0> d          -0.546   1.887  -0.873  0.00  0.00     0.027 H 
ATOM     18  H4  <0> d          -0.529   1.877   0.907  0.00  0.00     0.027 H 
ENDBRANCH  12  15
ENDBRANCH   9  12
ENDBRANCH   1   9
BRANCH   2  19
ATOM     19  C7  <0> d          -2.661  -2.990  -1.894  0.00  0.00     0.197 C 
ATOM     20  O2  <0> d          -2.710  -3.638  -2.925  0.00  0.00    -0.646 OA
ATOM     21  O3  <0> d          -3.629  -2.341  -1.534  0.00  0.00    -0.646 OA
ENDBRANCH   2  19
TORSDOF 4
