REMARK  2 active torsions:
REMARK  status: ('A' for Active; 'I' for Inactive)
REMARK    1  A    between atoms: C1_1  and  O1_2 
REMARK    2  A    between atoms: O1_2  and  C2_3 
ROOT
ATOM      1  C2  <0> d           1.145  -0.475  -0.345  0.00  0.00     0.134 C 
ATOM      2  N1  <0> d           0.002  -0.004   0.002  0.00  0.00    -0.271 NA
ATOM      3  C3  <0> d          -0.018   1.463   0.010  0.00  0.00     0.018 C 
ATOM      4  C4  <0> d           1.469   1.887  -0.002  0.00  0.00    -0.042 C 
ATOM      5  C5  <0> d           2.126   0.638  -0.637  0.00  0.00    -0.003 C 
ATOM      6  H4  <0> d          -0.526   1.839  -0.878  0.00  0.00     0.067 H 
ATOM      7  H5  <0> d          -0.509   1.830   0.912  0.00  0.00     0.067 H 
ATOM      8  H6  <0> d           1.621   2.770  -0.623  0.00  0.00     0.036 H 
ATOM      9  H7  <0> d           1.839   2.053   1.010  0.00  0.00     0.036 H 
ATOM     10  H8  <0> d           3.089   0.432  -0.170  0.00  0.00     0.045 H 
ATOM     11  H9  <0> d           2.243   0.772  -1.713  0.00  0.00     0.045 H 
ENDROOT
BRANCH   1  12
ATOM     12  O1  <0> d           1.433  -1.790  -0.436  0.00  0.00    -0.343 OA
BRANCH  12  13
ATOM     13  C1  <0> d           0.383  -2.708  -0.122  0.00  0.00     0.012 C 
ATOM     14  H1  <0> d           0.058  -2.550   0.906  0.00  0.00     0.067 H 
ATOM     15  H2  <0> d          -0.456  -2.544  -0.798  0.00  0.00     0.067 H 
ATOM     16  H3  <0> d           0.747  -3.729  -0.235  0.00  0.00     0.067 H 
ENDBRANCH  12  13
ENDBRANCH   1  12
TORSDOF 2
