REMARK  3 active torsions:
REMARK  status: ('A' for Active; 'I' for Inactive)
REMARK    1  A    between atoms: C1_1  and  C2_2 
REMARK    2  A    between atoms: C5_6  and  C8_11 
REMARK    3  A    between atoms: C8_11  and  C10_13 
ROOT
ATOM      1  C2  <0> d           0.002  -0.004   0.002  0.00  0.00    -0.051 C 
ATOM      2  H1  <0> d          -1.020  -0.382   0.010  0.00  0.00     0.040 H 
ATOM      3  C3  <0> d           0.719  -0.498  -1.256  0.00  0.00    -0.061 C 
ATOM      4  C4  <0> d           0.666  -2.025  -1.317  0.00  0.00    -0.051 C 
ATOM      5  C5  <0> d           1.433  -2.609  -0.126  0.00  0.00     0.025 C 
ATOM      6  H2  <0> d           2.490  -2.355  -0.211  0.00  0.00     0.058 H 
ATOM      7  C6  <0> d           0.869  -2.016   1.146  0.00  0.00     0.135 C 
ATOM      8  O1  <0> d           0.527  -2.726   2.061  0.00  0.00    -0.297 OA
ATOM      9  C7  <0> d           0.744  -0.512   1.243  0.00  0.00    -0.006 C 
ATOM     10  H6  <0> d           0.230  -0.083  -2.138  0.00  0.00     0.033 H 
ATOM     11  H7  <0> d           1.758  -0.172  -1.232  0.00  0.00     0.033 H 
ATOM     12  H8  <0> d          -0.372  -2.355  -1.278  0.00  0.00     0.034 H 
ATOM     13  H9  <0> d           1.122  -2.368  -2.246  0.00  0.00     0.034 H 
ATOM     14  H10 <0> d           1.737  -0.064   1.285  0.00  0.00     0.044 H 
ATOM     15  H11 <0> d           0.182  -0.248   2.139  0.00  0.00     0.044 H 
ENDROOT
BRANCH   5  16
ATOM     16  C8  <0> d           1.272  -4.107  -0.106  0.00  0.00    -0.082 C 
ATOM     17  C9  <0> d           2.326  -4.880  -0.193  0.00  0.00    -0.119 C 
ATOM     18  H12 <0> d           2.211  -5.954  -0.179  0.00  0.00     0.067 H 
ATOM     19  H13 <0> d           3.310  -4.444  -0.280  0.00  0.00     0.067 H 
BRANCH  16  20
ATOM     20  C10 <0> d          -0.101  -4.716   0.015  0.00  0.00    -0.054 C 
ATOM     21  H14 <0> d          -0.715  -4.397  -0.827  0.00  0.00     0.033 H 
ATOM     22  H15 <0> d          -0.018  -5.803   0.012  0.00  0.00     0.033 H 
ATOM     23  H16 <0> d          -0.563  -4.389   0.946  0.00  0.00     0.033 H 
ENDBRANCH  16  20
ENDBRANCH   5  16
BRANCH   1  24
ATOM     24  C1  <0> d          -0.019   1.526   0.010  0.00  0.00    -0.073 C 
ATOM     25  H3  <0> d           1.004   1.903   0.003  0.00  0.00     0.028 H 
ATOM     26  H4  <0> d          -0.546   1.887  -0.873  0.00  0.00     0.028 H 
ATOM     27  H5  <0> d          -0.529   1.877   0.907  0.00  0.00     0.028 H 
ENDBRANCH   1  24
TORSDOF 3
