REMARK  3 active torsions:
REMARK  status: ('A' for Active; 'I' for Inactive)
REMARK    1  A    between atoms: C1_1  and  C2_2 
REMARK    2  A    between atoms: C2_2  and  C3_4 
REMARK    3  A    between atoms: N1_7  and  C6_9 
ROOT
ATOM      1  C3  <0> d          -0.000  -0.732  -1.275  0.00  0.00     0.123 A 
ATOM      2  C4  <0> d           0.023  -2.139  -1.443  0.00  0.00    -0.033 A 
ATOM      3  C5  <0> d           0.008  -2.345  -2.780  0.00  0.00     0.000 A 
ATOM      4  N1  <0> d          -0.014  -1.125  -3.373  0.00  0.00    -0.285 N 
ATOM      5  N2  <0> d          -0.018  -0.199  -2.483  0.00  0.00    -0.170 NA
ATOM      6  H4  <0> d           0.046  -2.890  -0.667  0.00  0.00     0.089 H 
ATOM      7  H5  <0> d           0.017  -3.301  -3.282  0.00  0.00     0.114 H 
ENDROOT
BRANCH   1   8
ATOM      8  C2  <0> d           0.002  -0.004   0.002  0.00  0.00     0.175 C 
ATOM      9  O1  <0> d           0.020  -0.616   1.049  0.00  0.00    -0.291 OA
BRANCH   8  10
ATOM     10  C1  <0> d          -0.018   1.503   0.010  0.00  0.00    -0.015 C 
ATOM     11  H1  <0> d           0.920   1.849   0.003  0.00  0.00     0.038 H 
ATOM     12  H2  <0> d          -0.545   1.864  -0.873  0.00  0.00     0.038 H 
ATOM     13  H3  <0> d          -0.529   1.854   0.907  0.00  0.00     0.038 H 
ENDBRANCH   8  10
ENDBRANCH   1   8
BRANCH   4  14
ATOM     14  C6  <0> d          -0.029  -0.897  -4.820  0.00  0.00     0.002 C 
ATOM     15  H6  <0> d           0.994  -0.826  -5.188  0.00  0.00     0.059 H 
ATOM     16  H7  <0> d          -0.536  -1.726  -5.314  0.00  0.00     0.059 H 
ATOM     17  H8  <0> d          -0.558   0.032  -5.036  0.00  0.00     0.059 H 
ENDBRANCH   4  14
TORSDOF 3
