REMARK  4 active torsions:
REMARK  status: ('A' for Active; 'I' for Inactive)
REMARK    1  A    between atoms: C1_1  and  C2_2 
REMARK    2  A    between atoms: C2_2  and  O1_13 
REMARK    3  A    between atoms: C8_10  and  C9_11 
REMARK    4  A    between atoms: C8_10  and  C10_12 
ROOT
ATOM      1  C2  <0> d           0.059  -0.004  -0.037  0.00  0.00     0.065 C 
ATOM      2  C3  <0> d           0.812  -0.572  -1.279  0.00  0.00    -0.024 C 
ATOM      3  H1  <0> d           0.243  -0.602  -2.208  0.00  0.00     0.044 H 
ATOM      4  C4  <0> d           2.150   0.227  -1.324  0.00  0.00    -0.059 C 
ATOM      5  C5  <0> d           2.954  -0.289  -0.109  0.00  0.00    -0.060 C 
ATOM      6  C6  <0> d           2.027  -1.352   0.555  0.00  0.00    -0.044 C 
ATOM      7  H2  <0> d           2.518  -2.069   1.212  0.00  0.00     0.041 H 
ATOM      8  C7  <0> d           1.295  -1.956  -0.718  0.00  0.00    -0.055 C 
ATOM      9  C8  <0> d           0.852  -0.538   1.178  0.00  0.00    -0.013 C 
ATOM     10  H6  <0> d           2.685   0.020  -2.250  0.00  0.00     0.033 H 
ATOM     11  H7  <0> d           1.957   1.296  -1.226  0.00  0.00     0.033 H 
ATOM     12  H8  <0> d           3.885  -0.750  -0.439  0.00  0.00     0.033 H 
ATOM     13  H9  <0> d           3.158   0.525   0.586  0.00  0.00     0.033 H 
ATOM     14  H10 <0> d           0.460  -2.606  -0.459  0.00  0.00     0.034 H 
ATOM     15  H11 <0> d           1.997  -2.447  -1.391  0.00  0.00     0.034 H 
ENDROOT
BRANCH   9  16
ATOM     16  C9  <0> d          -0.041  -1.423   2.050  0.00  0.00    -0.066 C 
ATOM     17  H12 <0> d          -0.401  -2.268   1.462  0.00  0.00     0.028 H 
ATOM     18  H13 <0> d           0.532  -1.791   2.901  0.00  0.00     0.028 H 
ATOM     19  H14 <0> d          -0.891  -0.842   2.408  0.00  0.00     0.028 H 
ENDBRANCH   9  16
BRANCH   9  20
ATOM     20  C10 <0> d           1.417   0.624   1.998  0.00  0.00    -0.066 C 
ATOM     21  H15 <0> d           0.599   1.169   2.468  0.00  0.00     0.028 H 
ATOM     22  H16 <0> d           2.084   0.234   2.767  0.00  0.00     0.028 H 
ATOM     23  H17 <0> d           1.972   1.295   1.342  0.00  0.00     0.028 H 
ENDBRANCH   9  20
BRANCH   1  24
ATOM     24  C1  <0> d           0.078   1.526  -0.056  0.00  0.00    -0.047 C 
ATOM     25  H3  <0> d           1.107   1.877   0.014  0.00  0.00     0.031 H 
ATOM     26  H4  <0> d          -0.367   1.883  -0.985  0.00  0.00     0.031 H 
ATOM     27  H5  <0> d          -0.494   1.906   0.790  0.00  0.00     0.031 H 
ENDBRANCH   1  24
BRANCH   1  28
ATOM     28  O1  <0> d          -1.286  -0.485  -0.004  0.00  0.00    -0.389 OA
ATOM     29  H18 <0> d          -1.824  -0.201  -0.757  0.00  0.00     0.210 HD
ENDBRANCH   1  28
TORSDOF 4
