REMARK  1 active torsions:
REMARK  status: ('A' for Active; 'I' for Inactive)
REMARK    1  A    between atoms: C5_6  and  C8_10 
ROOT
ATOM      1  C8  <0> d           2.304   6.594   0.014  0.00  0.00     0.056 C 
ATOM      2  C9  <0> d           1.833   7.414  -1.114  0.00  0.00     0.065 C 
ATOM      3  N3  <0> d           1.470   8.047  -1.985  0.00  0.00    -0.197 NA
ATOM      4  H6  <0> d           2.109   7.117   0.950  0.00  0.00     0.064 H 
ATOM      5  H7  <0> d           3.375   6.418  -0.088  0.00  0.00     0.064 H 
ENDROOT
BRANCH   1   6
ATOM      6  C5  <0> d           1.576   5.274   0.014  0.00  0.00     0.065 A 
ATOM      7  C4  <0> d           2.156   4.054   0.002  0.00  0.00     0.011 A 
ATOM      8  N1  <0> d           1.148   3.128   0.007  0.00  0.00    -0.316 N 
ATOM      9  H4  <0> d           3.216   3.848  -0.009  0.00  0.00     0.115 H 
ATOM     10  C3  <0> d           1.149   1.763   0.001  0.00  0.00    -0.014 A 
ATOM     11  C6  <0> d          -0.034   3.822   0.022  0.00  0.00     0.134 A 
ATOM     12  C2  <0> d          -0.013   1.076   0.008  0.00  0.00    -0.067 A 
ATOM     13  H3  <0> d           2.087   1.229  -0.011  0.00  0.00     0.112 H 
ATOM     14  C1  <0> d          -1.240   1.758   0.018  0.00  0.00    -0.078 A 
ATOM     15  H2  <0> d           0.002  -0.004   0.002  0.00  0.00     0.085 H 
ATOM     16  C7  <0> d          -1.255   3.119   0.031  0.00  0.00    -0.038 A 
ATOM     17  H1  <0> d          -2.168   1.206   0.019  0.00  0.00     0.083 H 
ATOM     18  H5  <0> d          -2.193   3.654   0.042  0.00  0.00     0.089 H 
ATOM     19  N2  <0> d           0.250   5.117   0.026  0.00  0.00    -0.233 NA
ENDBRANCH   1   6
TORSDOF 1
