REMARK  0 active torsions:
REMARK  status: ('A' for Active; 'I' for Inactive)
ROOT
ATOM      1  C1  <0> d          -0.017   1.392   0.010  0.00  0.00    -0.053 A 
ATOM      2  C2  <0> d           1.174   2.065   0.002  0.00  0.00     0.005 A 
ATOM      3  N1  <0> d           2.327   1.417  -0.013  0.00  0.00    -0.246 NA
ATOM      4  C3  <0> d           2.401   0.100  -0.021  0.00  0.00     0.160 A 
ATOM      5  C4  <0> d           1.244  -0.667  -0.013  0.00  0.00     0.125 A 
ATOM      6  C5  <0> d           0.002  -0.004   0.002  0.00  0.00     0.004 A 
ATOM      7  C6  <0> d          -1.008  -1.062   0.005  0.00  0.00    -0.049 A 
ATOM      8  C7  <0> d          -0.334  -2.223  -0.007  0.00  0.00     0.020 A 
ATOM      9  O1  <0> d           0.990  -1.989  -0.018  0.00  0.00    -0.319 OA
ATOM     10 Cl1  <0> d           3.953  -0.677  -0.041  0.00  0.00    -0.059 Cl
ATOM     11  H1  <0> d          -0.953   1.930   0.026  0.00  0.00     0.087 H 
ATOM     12  H2  <0> d           1.172   3.145   0.008  0.00  0.00     0.114 H 
ATOM     13  H3  <0> d          -2.081  -0.935   0.017  0.00  0.00     0.087 H 
ATOM     14  H4  <0> d          -0.789  -3.202  -0.008  0.00  0.00     0.123 H 
ENDROOT
TORSDOF 0
