REMARK  5 active torsions:
REMARK  status: ('A' for Active; 'I' for Inactive)
REMARK    1  A    between atoms: C1_1  and  C2_2 
REMARK    2  A    between atoms: C3_3  and  C4_4 
REMARK    3  A    between atoms: C4_4  and  O1_5 
REMARK    4  A    between atoms: O1_5  and  C5_6 
REMARK    5  A    between atoms: C5_6  and  C6_8 
ROOT
ATOM      1  C4  <0> d          -0.960   1.741   3.671  0.00  0.00     0.044 C 
ATOM      2  H6  <0> d          -0.388   2.553   4.121  0.00  0.00     0.081 H 
ATOM      3  H7  <0> d          -1.954   2.101   3.406  0.00  0.00     0.081 H 
ENDROOT
BRANCH   1   4
ATOM      4  C3  <0> d          -0.255   1.255   2.432  0.00  0.00    -0.084 C 
ATOM      5  C2  <0> d          -0.718   1.572   1.248  0.00  0.00    -0.108 C 
ATOM      6  H4  <0> d          -1.605   2.181   1.161  0.00  0.00     0.075 H 
ATOM      7  H5  <0> d           0.632   0.646   2.519  0.00  0.00     0.079 H 
BRANCH   5   8
ATOM      8  C1  <0> d          -0.013   1.086   0.008  0.00  0.00    -0.060 C 
ATOM      9  H1  <0> d           0.002  -0.004   0.002  0.00  0.00     0.032 H 
ATOM     10  H2  <0> d           1.010   1.463   0.000  0.00  0.00     0.032 H 
ATOM     11  H3  <0> d          -0.540   1.447  -0.875  0.00  0.00     0.032 H 
ENDBRANCH   5   8
ENDBRANCH   1   4
BRANCH   1  12
ATOM     12  O1  <0> d          -1.078   0.649   4.621  0.00  0.00    -0.318 OA
BRANCH  12  13
ATOM     13  C5  <0> d          -1.687   0.918   5.787  0.00  0.00     0.255 C 
ATOM     14  O2  <0> d          -2.108   2.029   6.006  0.00  0.00    -0.266 OA
BRANCH  13  15
ATOM     15  C6  <0> d          -1.846  -0.167   6.821  0.00  0.00     0.004 C 
ATOM     16  H8  <0> d          -1.409  -1.092   6.447  0.00  0.00     0.041 H 
ATOM     17  H9  <0> d          -1.339   0.130   7.739  0.00  0.00     0.041 H 
ATOM     18  H10 <0> d          -2.906  -0.322   7.025  0.00  0.00     0.041 H 
ENDBRANCH  13  15
ENDBRANCH  12  13
ENDBRANCH   1  12
TORSDOF 5
