REMARK  3 active torsions:
REMARK  status: ('A' for Active; 'I' for Inactive)
REMARK    1  A    between atoms: C1_1  and  C2_2 
REMARK    2  A    between atoms: C6_9  and  C7_10 
REMARK    3  A    between atoms: C6_9  and  C8_11 
ROOT
ATOM      1  C2  <0> d           0.082   1.089   0.055  0.00  0.00    -0.041 C 
ATOM      2  H1  <0> d           0.143   0.001   0.072  0.00  0.00     0.041 H 
ATOM      3  C3  <0> d           1.509   1.714   0.112  0.00  0.00     0.008 C 
ATOM      4  H2  <0> d           1.925   1.679  -0.796  0.00  0.00     0.052 H 
ATOM      5  C4  <0> d           1.194   3.095   0.790  0.00  0.00    -0.051 C 
ATOM      6  C5  <0> d           0.451   2.493   2.035  0.00  0.00    -0.040 C 
ATOM      7  H3  <0> d           0.089   3.206   2.775  0.00  0.00     0.041 H 
ATOM      8  C6  <0> d          -0.624   1.610   1.328  0.00  0.00    -0.040 C 
ATOM      9  C9  <0> d           1.522   1.473   2.531  0.00  0.00    -0.005 C 
ATOM     10  C10 <0> d           2.206   0.979   1.265  0.00  0.00     0.131 C 
ATOM     11  O1  <0> d           3.107   0.178   1.184  0.00  0.00    -0.298 OA
ATOM     12  H7  <0> d           2.102   3.628   1.073  0.00  0.00     0.034 H 
ATOM     13  H8  <0> d           0.536   3.711   0.178  0.00  0.00     0.034 H 
ATOM     14  H15 <0> d           1.072   0.733   3.031  0.00  0.00     0.044 H 
ATOM     15  H16 <0> d           2.242   1.967   3.183  0.00  0.00     0.044 H 
ENDROOT
BRANCH   8  16
ATOM     16  C7  <0> d          -1.846   2.451   0.956  0.00  0.00    -0.069 C 
ATOM     17  H9  <0> d          -2.559   1.834   0.409  0.00  0.00     0.028 H 
ATOM     18  H10 <0> d          -2.315   2.831   1.863  0.00  0.00     0.028 H 
ATOM     19  H11 <0> d          -1.534   3.288   0.330  0.00  0.00     0.028 H 
ENDBRANCH   8  16
BRANCH   8  20
ATOM     20  C8  <0> d          -1.032   0.442   2.228  0.00  0.00    -0.069 C 
ATOM     21  H12 <0> d          -0.174  -0.212   2.386  0.00  0.00     0.028 H 
ATOM     22  H13 <0> d          -1.377   0.826   3.188  0.00  0.00     0.028 H 
ATOM     23  H14 <0> d          -1.834  -0.121   1.752  0.00  0.00     0.028 H 
ENDBRANCH   8  20
BRANCH   1  24
ATOM     24  C1  <0> d          -0.658   1.561  -1.199  0.00  0.00    -0.071 C 
ATOM     25  H4  <0> d          -0.130   1.210  -2.086  0.00  0.00     0.028 H 
ATOM     26  H5  <0> d          -1.671   1.159  -1.196  0.00  0.00     0.028 H 
ATOM     27  H6  <0> d          -0.700   2.650  -1.207  0.00  0.00     0.028 H 
ENDBRANCH   1  24
TORSDOF 3
