REMARK  3 active torsions:
REMARK  status: ('A' for Active; 'I' for Inactive)
REMARK    1  A    between atoms: C1_1  and  N1_2 
REMARK    2  A    between atoms: N1_2  and  C2_3 
REMARK    3  A    between atoms: N1_2  and  C3_4 
ROOT
ATOM      1  C3  <0> d           0.045   3.814   0.239  0.00  0.00     0.124 A 
ATOM      2  C4  <0> d          -1.141   3.200   0.630  0.00  0.00    -0.039 A 
ATOM      3  C5  <0> d          -1.155   1.832   0.832  0.00  0.00    -0.078 A 
ATOM      4  C6  <0> d           0.024   1.122   0.645  0.00  0.00    -0.066 A 
ATOM      5  C7  <0> d           1.164   1.795   0.257  0.00  0.00     0.004 A 
ATOM      6  N2  <0> d           1.148   3.101   0.067  0.00  0.00    -0.244 NA
ATOM      7  H7  <0> d          -2.039   3.783   0.770  0.00  0.00     0.089 H 
ATOM      8  H8  <0> d          -2.062   1.327   1.132  0.00  0.00     0.083 H 
ATOM      9  H9  <0> d           0.047   0.053   0.798  0.00  0.00     0.085 H 
ATOM     10  H10 <0> d           2.082   1.246   0.107  0.00  0.00     0.114 H 
ENDROOT
BRANCH   1  11
ATOM     11  N1  <0> d           0.073   5.187   0.028  0.00  0.00    -0.374 N 
BRANCH  11  12
ATOM     12  C1  <0> d          -1.174   5.956   0.044  0.00  0.00    -0.018 C 
ATOM     13  H1  <0> d          -2.020   5.275   0.138  0.00  0.00     0.056 H 
ATOM     14  H2  <0> d          -1.166   6.644   0.890  0.00  0.00     0.056 H 
ATOM     15  H3  <0> d          -1.264   6.521  -0.883  0.00  0.00     0.056 H 
ENDBRANCH  11  12
BRANCH  11  16
ATOM     16  C2  <0> d           1.349   5.866  -0.210  0.00  0.00    -0.018 C 
ATOM     17  H4  <0> d           1.558   5.881  -1.280  0.00  0.00     0.056 H 
ATOM     18  H5  <0> d           1.292   6.888   0.164  0.00  0.00     0.056 H 
ATOM     19  H6  <0> d           2.146   5.333   0.308  0.00  0.00     0.056 H 
ENDBRANCH  11  16
ENDBRANCH   1  11
TORSDOF 3
