REMARK  1 active torsions:
REMARK  status: ('A' for Active; 'I' for Inactive)
REMARK    1  A    between atoms: C3_3  and  O3_9 
ROOT
ATOM      1  C1  <0> d           2.540   3.708   0.217  0.00  0.00    -0.042 C 
ATOM      2  C2  <0> d           1.151   3.089   0.035  0.00  0.00    -0.030 C 
ATOM      3  C3  <0> d           1.286   1.562  -0.002  0.00  0.00     0.119 C 
ATOM      4  H1  <0> d           1.823   1.262  -0.902  0.00  0.00     0.098 H 
ATOM      5  C4  <0> d           2.059   1.122   1.222  0.00  0.00     0.287 C 
ATOM      6  O1  <0> d           1.651   0.229   1.927  0.00  0.00    -0.262 OA
ATOM      7  O2  <0> d           3.217   1.756   1.504  0.00  0.00    -0.319 OA
ATOM      8  C5  <0> d           3.149   3.209   1.530  0.00  0.00     0.029 C 
ATOM      9  H2  <0> d           2.453   4.794   0.246  0.00  0.00     0.036 H 
ATOM     10  H3  <0> d           3.180   3.416  -0.615  0.00  0.00     0.036 H 
ATOM     11  H4  <0> d           0.715   3.439  -0.901  0.00  0.00     0.037 H 
ATOM     12  H5  <0> d           0.510   3.378   0.868  0.00  0.00     0.037 H 
ATOM     13  H6  <0> d           2.527   3.530   2.366  0.00  0.00     0.075 H 
ATOM     14  H7  <0> d           4.153   3.619   1.644  0.00  0.00     0.075 H 
ENDROOT
BRANCH   3  15
ATOM     15  O3  <0> d          -0.011   0.963   0.007  0.00  0.00    -0.386 OA
ATOM     16  H8  <0> d           0.002  -0.004   0.002  0.00  0.00     0.210 HD
ENDBRANCH   3  15
TORSDOF 1
