REMARK  1 active torsions:
REMARK  status: ('A' for Active; 'I' for Inactive)
REMARK    1  A    between atoms: C1_1  and  C2_2 
ROOT
ATOM      1  C2  <0> d           1.104   3.182   0.009  0.00  0.00    -0.044 A 
ATOM      2  C3  <0> d           1.156   1.783   0.001  0.00  0.00    -0.072 A 
ATOM      3  C4  <0> d          -0.013   1.076   0.008  0.00  0.00    -0.036 A 
ATOM      4  C5  <0> d          -1.231   1.769   0.018  0.00  0.00     0.161 A 
ATOM      5  N1  <0> d          -2.505   1.354   0.021  0.00  0.00    -0.166 NA
ATOM      6  C6  <0> d          -3.244   2.462   0.030  0.00  0.00     0.411 A 
ATOM      7  O1  <0> d          -4.464   2.515   0.035  0.00  0.00    -0.234 OA
ATOM      8  O2  <0> d          -2.405   3.510   0.043  0.00  0.00    -0.171 OA
ATOM      9  N2  <0> d          -1.249   3.127   0.031  0.00  0.00    -0.204 N 
ATOM     10  C7  <0> d          -0.090   3.820   0.024  0.00  0.00     0.016 A 
ATOM     11  H4  <0> d           2.106   1.270  -0.012  0.00  0.00     0.084 H 
ATOM     12  H5  <0> d           0.002  -0.004   0.002  0.00  0.00     0.089 H 
ATOM     13  H6  <0> d          -0.115   4.900   0.030  0.00  0.00     0.116 H 
ENDROOT
BRANCH   1  14
ATOM     14  C1  <0> d           2.382   3.980   0.000  0.00  0.00    -0.050 C 
ATOM     15  H1  <0> d           2.680   4.178  -1.029  0.00  0.00     0.033 H 
ATOM     16  H2  <0> d           2.224   4.925   0.521  0.00  0.00     0.033 H 
ATOM     17  H3  <0> d           3.167   3.415   0.503  0.00  0.00     0.033 H 
ENDBRANCH   1  14
TORSDOF 1
