REMARK  0 active torsions:
REMARK  status: ('A' for Active; 'I' for Inactive)
ROOT
ATOM      1  C1  <0> d          -0.019   1.531   0.011  0.00  0.00    -0.064 C 
ATOM      2  C2  <0> d           1.441   2.005  -0.001  0.00  0.00    -0.061 C 
ATOM      3  C3  <0> d           2.331   0.758   0.007  0.00  0.00    -0.044 C 
ATOM      4  H1  <0> d           3.207   0.874   0.645  0.00  0.00     0.041 H 
ATOM      5  C4  <0> d           2.695   0.361  -1.440  0.00  0.00    -0.046 C 
ATOM      6  C5  <0> d           2.572  -1.146  -1.462  0.00  0.00    -0.105 C 
ATOM      7  C6  <0> d           1.876  -1.575  -0.444  0.00  0.00    -0.102 C 
ATOM      8  C7  <0> d           1.418  -0.421   0.442  0.00  0.00    -0.034 C 
ATOM      9  H2  <0> d           1.489  -0.640   1.508  0.00  0.00     0.046 H 
ATOM     10  C8  <0> d           0.002  -0.004   0.002  0.00  0.00    -0.058 C 
ATOM     11  H3  <0> d          -0.518   1.890   0.910  0.00  0.00     0.033 H 
ATOM     12  H4  <0> d          -0.535   1.899  -0.876  0.00  0.00     0.033 H 
ATOM     13  H5  <0> d           1.632   2.591  -0.900  0.00  0.00     0.033 H 
ATOM     14  H6  <0> d           1.641   2.608   0.885  0.00  0.00     0.033 H 
ATOM     15  H7  <0> d           1.996   0.810  -2.145  0.00  0.00     0.039 H 
ATOM     16  H8  <0> d           3.717   0.662  -1.671  0.00  0.00     0.039 H 
ATOM     17  H9  <0> d           3.002  -1.783  -2.220  0.00  0.00     0.076 H 
ATOM     18  H10 <0> d           1.659  -2.614  -0.247  0.00  0.00     0.076 H 
ATOM     19  H11 <0> d          -0.737  -0.392   0.703  0.00  0.00     0.033 H 
ATOM     20  H12 <0> d          -0.202  -0.376  -1.002  0.00  0.00     0.033 H 
ENDROOT
TORSDOF 0
