REMARK  2 active torsions:
REMARK  status: ('A' for Active; 'I' for Inactive)
REMARK    1  A    between atoms: C1_1  and  C2_2 
REMARK    2  A    between atoms: N1_11  and  C10_12 
ROOT
ATOM      1  C2  <0> d           3.378   2.433  -0.445  0.00  0.00    -0.001 C 
ATOM      2  H1  <0> d           4.340   2.397   0.065  0.00  0.00     0.064 H 
ATOM      3  C3  <0> d           2.576   3.683  -0.017  0.00  0.00    -0.025 C 
ATOM      4  C4  <0> d           1.148   3.176   0.004  0.00  0.00    -0.035 A 
ATOM      5  C5  <0> d          -0.060   3.843   0.021  0.00  0.00    -0.075 A 
ATOM      6  C6  <0> d          -1.245   3.130   0.031  0.00  0.00    -0.082 A 
ATOM      7  C7  <0> d          -1.217   1.747   0.017  0.00  0.00    -0.081 A 
ATOM      8  C8  <0> d          -0.013   1.076   0.008  0.00  0.00    -0.062 A 
ATOM      9  C9  <0> d           1.186   1.787   0.000  0.00  0.00     0.017 A 
ATOM     10  N1  <0> d           2.507   1.323  -0.002  0.00  0.00    -0.283 NA
ATOM     11  H5  <0> d           2.691   4.485  -0.747  0.00  0.00     0.042 H 
ATOM     12  H6  <0> d           2.881   4.017   0.975  0.00  0.00     0.042 H 
ATOM     13  H7  <0> d          -0.080   4.922   0.027  0.00  0.00     0.084 H 
ATOM     14  H8  <0> d          -2.190   3.652   0.045  0.00  0.00     0.083 H 
ATOM     15  H9  <0> d          -2.143   1.191   0.018  0.00  0.00     0.083 H 
ATOM     16  H10 <0> d           0.002  -0.004   0.002  0.00  0.00     0.086 H 
ENDROOT
BRANCH   1  17
ATOM     17  C1  <0> d           3.566   2.403  -1.964  0.00  0.00    -0.061 C 
ATOM     18  H2  <0> d           4.108   3.294  -2.280  0.00  0.00     0.029 H 
ATOM     19  H3  <0> d           4.133   1.515  -2.242  0.00  0.00     0.029 H 
ATOM     20  H4  <0> d           2.591   2.379  -2.450  0.00  0.00     0.029 H 
ENDBRANCH   1  17
BRANCH  10  21
ATOM     21  C10 <0> d           2.654   0.156  -0.882  0.00  0.00    -0.028 C 
ATOM     22  H11 <0> d           2.376   0.431  -1.900  0.00  0.00     0.048 H 
ATOM     23  H12 <0> d           3.689  -0.183  -0.868  0.00  0.00     0.048 H 
ATOM     24  H13 <0> d           2.004  -0.646  -0.533  0.00  0.00     0.048 H 
ENDBRANCH  10  21
TORSDOF 2
