REMARK  5 active torsions:
REMARK  status: ('A' for Active; 'I' for Inactive)
REMARK    1  A    between atoms: C1_1  and  C2_2 
REMARK    2  A    between atoms: C4_4  and  C10_11 
REMARK    3  A    between atoms: C5_5  and  O1_10 
REMARK    4  A    between atoms: C6_6  and  C9_9 
REMARK    5  A    between atoms: C7_7  and  C8_8 
ROOT
ATOM      1  C2  <0> d          -2.083   1.789   1.226  0.00  0.00    -0.055 A 
ATOM      2  C3  <0> d          -2.734   2.231   2.363  0.00  0.00    -0.068 A 
ATOM      3  C4  <0> d          -2.020   2.465   3.522  0.00  0.00    -0.028 A 
ATOM      4  C5  <0> d          -0.649   2.253   3.545  0.00  0.00     0.078 A 
ATOM      5  C6  <0> d           0.001   1.805   2.404  0.00  0.00    -0.022 A 
ATOM      6  C7  <0> d          -0.718   1.572   1.248  0.00  0.00    -0.047 A 
ATOM      7  H4  <0> d          -3.801   2.396   2.344  0.00  0.00     0.085 H 
ENDROOT
BRANCH   1   8
ATOM      8  C1  <0> d          -2.864   1.540  -0.039  0.00  0.00    -0.051 C 
ATOM      9  H1  <0> d          -3.212   0.507  -0.053  0.00  0.00     0.033 H 
ATOM     10  H2  <0> d          -3.721   2.212  -0.075  0.00  0.00     0.033 H 
ATOM     11  H3  <0> d          -2.224   1.720  -0.903  0.00  0.00     0.033 H 
ENDBRANCH   1   8
BRANCH   6  12
ATOM     12  C8  <0> d          -0.013   1.086   0.008  0.00  0.00    -0.050 C 
ATOM     13  H5  <0> d           0.002  -0.004   0.002  0.00  0.00     0.033 H 
ATOM     14  H6  <0> d           1.010   1.463   0.000  0.00  0.00     0.033 H 
ATOM     15  H7  <0> d          -0.540   1.447  -0.875  0.00  0.00     0.033 H 
ENDBRANCH   6  12
BRANCH   5  16
ATOM     16  C9  <0> d           1.490   1.574   2.426  0.00  0.00    -0.048 C 
ATOM     17  H8  <0> d           2.004   2.491   2.139  0.00  0.00     0.033 H 
ATOM     18  H9  <0> d           1.798   1.285   3.431  0.00  0.00     0.033 H 
ATOM     19  H10 <0> d           1.745   0.779   1.725  0.00  0.00     0.033 H 
ENDBRANCH   5  16
BRANCH   3  20
ATOM     20  C10 <0> d          -2.729   2.952   4.759  0.00  0.00    -0.049 C 
ATOM     21  H12 <0> d          -2.744   4.042   4.764  0.00  0.00     0.033 H 
ATOM     22  H13 <0> d          -3.751   2.575   4.764  0.00  0.00     0.033 H 
ATOM     23  H14 <0> d          -2.204   2.592   5.644  0.00  0.00     0.033 H 
ENDBRANCH   3  20
BRANCH   4  24
ATOM     24  O1  <0> d           0.056   2.484   4.684  0.00  0.00    -0.360 OA
ATOM     25  H11 <0> d           0.394   3.387   4.761  0.00  0.00     0.217 HD
ENDBRANCH   4  24
TORSDOF 5
