REMARK  4 active torsions:
REMARK  status: ('A' for Active; 'I' for Inactive)
REMARK    1  A    between atoms: C1_1  and  N1_2 
REMARK    2  A    between atoms: C2_3  and  N4_9 
REMARK    3  A    between atoms: C3_5  and  S1_7 
REMARK    4  A    between atoms: S1_7  and  C4_8 
ROOT
ATOM      1  N1  <0> d           0.857   0.495   4.803  0.00  0.00    -0.102 N 
ATOM      2  C2  <0> d           1.664  -0.060   3.875  0.00  0.00     0.718 A 
ATOM      3  N2  <0> d           1.196   0.259   2.687  0.00  0.00    -0.035 NA
ATOM      4  C3  <0> d           0.099   1.013   2.823  0.00  0.00     0.225 A 
ATOM      5  N3  <0> d          -0.143   1.186   4.100  0.00  0.00    -0.130 NA
ENDROOT
BRANCH   4   6
ATOM      6  S1  <0> d          -0.862   1.671   1.500  0.00  0.00    -0.092 SA
BRANCH   6   7
ATOM      7  C4  <0> d          -0.013   1.086   0.008  0.00  0.00    -0.027 C 
ATOM      8  H4  <0> d          -0.545   1.450  -0.883  0.00  0.00     0.042 H 
ATOM      9  H5  <0> d           0.002  -0.014   0.002  0.00  0.00     0.042 H 
ATOM     10  H6  <0> d           1.019   1.467   0.000  0.00  0.00     0.042 H 
ENDBRANCH   6   7
ENDBRANCH   4   6
BRANCH   2  11
ATOM     11  N4  <0> d           2.785  -0.829   4.128  0.00  0.00    -0.231 N 
ATOM     12  H7  <0> d           3.374  -1.234   3.292  0.00  0.00     0.174 HD
ATOM     13  H8  <0> d           3.088  -1.035   5.165  0.00  0.00     0.174 HD
ENDBRANCH   2  11
BRANCH   1  14
ATOM     14  C1  <0> d           0.999   0.401   6.258  0.00  0.00     0.020 C 
ATOM     15  H1  <0> d           1.881  -0.210   6.502  0.00  0.00     0.060 H 
ATOM     16  H2  <0> d           0.100  -0.068   6.685  0.00  0.00     0.060 H 
ATOM     17  H3  <0> d           1.123   1.408   6.681  0.00  0.00     0.060 H 
ENDBRANCH   1  14
TORSDOF 4
