REMARK  2 active torsions:
REMARK  status: ('A' for Active; 'I' for Inactive)
REMARK    1  A    between atoms: N1_3  and  C4_6 
REMARK    2  A    between atoms: C4_6  and  O1_7 
ROOT
ATOM      1  C1  <0> d           0.952   5.096  -0.630  0.00  0.00     0.018 A 
ATOM      2  C2  <0> d           1.071   3.836  -1.089  0.00  0.00    -0.001 A 
ATOM      3  N1  <0> d           1.151   3.021   0.007  0.00  0.00    -0.328 N 
ATOM      4  C3  <0> d           1.088   3.812   1.099  0.00  0.00     0.067 A 
ATOM      5  N2  <0> d           0.969   5.053   0.710  0.00  0.00    -0.255 NA
ATOM      6  H1  <0> d           0.864   5.986  -1.235  0.00  0.00     0.117 H 
ATOM      7  H2  <0> d           1.095   3.527  -2.124  0.00  0.00     0.114 H 
ATOM      8  H3  <0> d           1.128   3.476   2.124  0.00  0.00     0.143 H 
ENDROOT
BRANCH   3   9
ATOM      9  C4  <0> d           1.286   1.562  -0.002  0.00  0.00     0.081 C 
ATOM     10  H4  <0> d           1.840   1.243   0.881  0.00  0.00     0.107 H 
ATOM     11  H5  <0> d           1.823   1.252  -0.899  0.00  0.00     0.107 H 
BRANCH   9  12
ATOM     12  O1  <0> d          -0.011   0.963   0.007  0.00  0.00    -0.382 OA
ATOM     13  H6  <0> d           0.002  -0.004   0.002  0.00  0.00     0.211 HD
ENDBRANCH   9  12
ENDBRANCH   3   9
TORSDOF 2
