REMARK  3 active torsions:
REMARK  status: ('A' for Active; 'I' for Inactive)
REMARK    1  A    between atoms: C1_1  and  C2_2 
REMARK    2  A    between atoms: C4_4  and  C6_8 
REMARK    3  A    between atoms: N2_6  and  C5_7 
REMARK       I    between atoms: C6_8  and  N3_10 
ROOT
ATOM      1  C2  <0> d           1.282   1.790  -0.001  0.00  0.00     0.028 A 
ATOM      2  C3  <0> d          -0.017   1.411   0.010  0.00  0.00    -0.025 A 
ATOM      3  C4  <0> d           0.002  -0.004   0.002  0.00  0.00     0.146 A 
ATOM      4  N1  <0> d           1.268  -0.371  -0.012  0.00  0.00    -0.167 NA
ATOM      5  N2  <0> d           2.028   0.664  -0.014  0.00  0.00    -0.278 N 
ATOM      6  H4  <0> d          -0.886   2.053   0.018  0.00  0.00     0.090 H 
ENDROOT
BRANCH   3   7
ATOM      7  C6  <0> d          -1.173  -0.899   0.009  0.00  0.00     0.269 C 
ATOM      8  O1  <0> d          -2.294  -0.430   0.022  0.00  0.00    -0.266 OA
ATOM      9  N3  <0> d          -1.002  -2.236  -0.000  0.00  0.00    -0.365 N 
ATOM     10  H8  <0> d          -1.877  -2.902   0.005  0.00  0.00     0.159 HD
ATOM     11  H9  <0> d           0.013  -2.661  -0.012  0.00  0.00     0.159 HD
ENDBRANCH   3   7
BRANCH   1  12
ATOM     12  C1  <0> d           1.800   3.205   0.002  0.00  0.00    -0.036 C 
ATOM     13  H1  <0> d           0.952   3.906   0.014  0.00  0.00     0.035 H 
ATOM     14  H2  <0> d           2.405   3.376  -0.901  0.00  0.00     0.035 H 
ATOM     15  H3  <0> d           2.422   3.367   0.895  0.00  0.00     0.035 H 
ENDBRANCH   1  12
BRANCH   5  16
ATOM     16  C5  <0> d           3.492   0.629  -0.028  0.00  0.00     0.003 C 
ATOM     17  H5  <0> d           3.834  -0.416  -0.036  0.00  0.00     0.059 H 
ATOM     18  H6  <0> d           3.880   1.134   0.870  0.00  0.00     0.059 H 
ATOM     19  H7  <0> d           3.863   1.144  -0.926  0.00  0.00     0.059 H 
ENDBRANCH   5  16
TORSDOF 3
