REMARK  5 active torsions:
REMARK  status: ('A' for Active; 'I' for Inactive)
REMARK    1  A    between atoms: C1_1  and  C2_2 
REMARK    2  A    between atoms: C4_5  and  N2_7 
REMARK    3  A    between atoms: N2_7  and  C5_8 
REMARK    4  A    between atoms: C5_8  and  C6_9 
REMARK    5  A    between atoms: C6_9  and  O1_10 
ROOT
ATOM      1  C2  <0> d          -0.718   1.572   1.248  0.00  0.00     0.040 A 
ATOM      2  C3  <0> d          -0.029   1.806   2.390  0.00  0.00    -0.018 A 
ATOM      3  S1  <0> d          -1.348   2.341   3.470  0.00  0.00    -0.062 SA
ATOM      4  C4  <0> d          -2.647   2.204   2.327  0.00  0.00     0.166 A 
ATOM      5  N1  <0> d          -2.021   1.784   1.244  0.00  0.00    -0.229 NA
ATOM      6  H4  <0> d           1.026   1.698   2.592  0.00  0.00     0.098 H 
ENDROOT
BRANCH   4   7
ATOM      7  N2  <0> d          -3.995   2.473   2.504  0.00  0.00    -0.367 N 
ATOM      8  H5  <0> d          -4.698   2.335   1.669  0.00  0.00     0.161 HD
BRANCH   7   9
ATOM      9  C5  <0> d          -4.484   2.942   3.803  0.00  0.00     0.014 C 
ATOM     10  H6  <0> d          -4.260   2.189   4.572  0.00  0.00     0.067 H 
ATOM     11  H7  <0> d          -3.988   3.890   4.061  0.00  0.00     0.067 H 
BRANCH   9  12
ATOM     12  C6  <0> d          -5.996   3.162   3.729  0.00  0.00     0.031 C 
ATOM     13  H8  <0> d          -6.350   3.599   4.675  0.00  0.00     0.076 H 
ATOM     14  H9  <0> d          -6.228   3.847   2.900  0.00  0.00     0.076 H 
BRANCH  12  15
ATOM     15  O1  <0> d          -6.649   1.911   3.509  0.00  0.00    -0.399 OA
ATOM     16  H10 <0> d          -7.746   1.869   3.428  0.00  0.00     0.209 HD
ENDBRANCH  12  15
ENDBRANCH   9  12
ENDBRANCH   7   9
ENDBRANCH   4   7
BRANCH   1  17
ATOM     17  C1  <0> d          -0.013   1.086   0.008  0.00  0.00    -0.035 C 
ATOM     18  H1  <0> d           1.061   0.972   0.218  0.00  0.00     0.035 H 
ATOM     19  H2  <0> d          -0.153   1.815  -0.803  0.00  0.00     0.035 H 
ATOM     20  H3  <0> d          -0.432   0.115  -0.295  0.00  0.00     0.035 H 
ENDBRANCH   1  17
TORSDOF 5
