REMARK  1 active torsions:
REMARK  status: ('A' for Active; 'I' for Inactive)
REMARK    1  A    between atoms: C1_1  and  C2_2 
ROOT
ATOM      1  C2  <0> d          -0.720   1.562   1.251  0.00  0.00     0.081 A 
ATOM      2  N1  <0> d          -0.002   1.785   2.370  0.00  0.00    -0.313 N 
ATOM      3  H1  <0> d           1.082   1.602   2.368  0.00  0.00     0.170 HD
ATOM      4  C3  <0> d          -0.610   2.230   3.489  0.00  0.00     0.250 A 
ATOM      5  O1  <0> d           0.032   2.434   4.507  0.00  0.00    -0.268 OA
ATOM      6  C4  <0> d          -1.997   2.444   3.464  0.00  0.00     0.035 A 
ATOM      7  C5  <0> d          -2.679   2.199   2.287  0.00  0.00     0.185 A 
ATOM      8  N2  <0> d          -2.008   1.767   1.210  0.00  0.00    -0.324 N 
ATOM      9  O2  <0> d          -4.017   2.393   2.223  0.00  0.00    -0.172 OA
ATOM     10  H5  <0> d          -2.492   2.767   4.271  0.00  0.00     0.099 H 
ATOM     11  H6  <0> d          -2.543   1.577   0.268  0.00  0.00     0.169 HD
ENDROOT
BRANCH   1  12
ATOM     12  C1  <0> d          -0.016   1.065   0.014  0.00  0.00    -0.023 C 
ATOM     13  H2  <0> d           1.057   0.949   0.225  0.00  0.00     0.037 H 
ATOM     14  H3  <0> d          -0.153   1.790  -0.802  0.00  0.00     0.037 H 
ATOM     15  H4  <0> d          -0.439   0.094  -0.282  0.00  0.00     0.037 H 
ENDBRANCH   1  12
TORSDOF 1
