REMARK  2 active torsions:
REMARK  status: ('A' for Active; 'I' for Inactive)
REMARK    1  A    between atoms: C1_1  and  C2_2 
REMARK    2  A    between atoms: N1_6  and  C6_9 
ROOT
ATOM      1  C2  <0> d           1.149   1.787   0.001  0.00  0.00     0.037 A 
ATOM      2  C3  <0> d          -0.013   1.076   0.008  0.00  0.00     0.006 A 
ATOM      3  C4  <0> d          -1.235   1.779   0.018  0.00  0.00     0.249 A 
ATOM      4  O1  <0> d          -2.298   1.181   0.019  0.00  0.00    -0.268 OA
ATOM      5  N1  <0> d          -1.203   3.129   0.029  0.00  0.00    -0.313 N 
ATOM      6  C5  <0> d          -0.020   3.774   0.022  0.00  0.00     0.068 A 
ATOM      7  N2  <0> d           1.112   3.122   0.008  0.00  0.00    -0.248 NA
ATOM      8  H4  <0> d           0.002  -0.004   0.002  0.00  0.00     0.095 H 
ATOM      9  H5  <0> d          -0.007   4.854   0.027  0.00  0.00     0.143 H 
ENDROOT
BRANCH   1  10
ATOM     10  C1  <0> d           2.474   1.069  -0.016  0.00  0.00    -0.035 C 
ATOM     11  H1  <0> d           2.301  -0.018  -0.019  0.00  0.00     0.035 H 
ATOM     12  H2  <0> d           3.052   1.345   0.878  0.00  0.00     0.035 H 
ATOM     13  H3  <0> d           3.034   1.354  -0.918  0.00  0.00     0.035 H 
ENDBRANCH   1  10
BRANCH   5  14
ATOM     14  C6  <0> d          -2.454   3.892   0.045  0.00  0.00    -0.010 C 
ATOM     15  H6  <0> d          -2.227   4.968   0.053  0.00  0.00     0.057 H 
ATOM     16  H7  <0> d          -3.030   3.632   0.946  0.00  0.00     0.057 H 
ATOM     17  H8  <0> d          -3.043   3.648  -0.851  0.00  0.00     0.057 H 
ENDBRANCH   5  14
TORSDOF 2
