REMARK  2 active torsions:
REMARK  status: ('A' for Active; 'I' for Inactive)
REMARK    1  A    between atoms: C4_5  and  N3_8 
REMARK    2  A    between atoms: C5_6  and  N2_7 
ROOT
ATOM      1  C1  <0> d          -2.460   3.705   0.034  0.00  0.00    -0.032 A 
ATOM      2  C2  <0> d          -3.624   2.947   0.036  0.00  0.00     0.053 A 
ATOM      3  C3  <0> d          -3.534   1.569   0.028  0.00  0.00     0.025 A 
ATOM      4  N1  <0> d          -2.360   0.964   0.018  0.00  0.00    -0.240 NA
ATOM      5  C4  <0> d          -1.227   1.646   0.017  0.00  0.00     0.147 A 
ATOM      6  C5  <0> d          -1.240   3.043   0.030  0.00  0.00     0.073 A 
ATOM      7 Cl1  <0> d          -5.176   3.724   0.048  0.00  0.00    -0.083 Cl
ATOM      8  H1  <0> d          -2.503   4.784   0.041  0.00  0.00     0.089 H 
ATOM      9  H2  <0> d          -4.437   0.977   0.029  0.00  0.00     0.117 H 
ENDROOT
BRANCH   5  10
ATOM     10  N3  <0> d          -0.011   0.966   0.007  0.00  0.00    -0.382 N 
ATOM     11  H5  <0> d           0.002  -0.004   0.002  0.00  0.00     0.157 HD
ATOM     12  H6  <0> d           0.822   1.462   0.002  0.00  0.00     0.157 HD
ENDBRANCH   5  10
BRANCH   6  13
ATOM     13  N2  <0> d          -0.040   3.765   0.034  0.00  0.00    -0.396 N 
ATOM     14  H3  <0> d           0.809   3.295   0.027  0.00  0.00     0.156 HD
ATOM     15  H4  <0> d          -0.057   4.735   0.043  0.00  0.00     0.156 HD
ENDBRANCH   6  13
TORSDOF 2
