REMARK  0 active torsions:
REMARK  status: ('A' for Active; 'I' for Inactive)
ROOT
ATOM      1  C1  <0> d          -0.685   1.577   1.280  0.00  0.00    -0.064 C 
ATOM      2  C2  <0> d          -0.013   1.093   0.008  0.00  0.00    -0.055 C 
ATOM      3  C3  <0> d          -0.708   1.591  -1.258  0.00  0.00     0.004 C 
ATOM      4  C4  <0> d          -2.108   0.998  -1.383  0.00  0.00    -0.055 C 
ATOM      5  C5  <0> d          -3.072   1.493  -0.321  0.00  0.00    -0.064 C 
ATOM      6  C6  <0> d          -3.063   2.996  -0.109  0.00  0.00    -0.055 C 
ATOM      7  C7  <0> d          -1.656   3.571   0.034  0.00  0.00     0.004 C 
ATOM      8  C8  <0> d          -0.984   3.065   1.307  0.00  0.00    -0.055 C 
ATOM      9  C9  <0> d          -0.838   3.100  -1.155  0.00  0.00     0.135 C 
ATOM     10  O1  <0> d          -0.336   3.857  -1.948  0.00  0.00    -0.297 OA
ATOM     11  H1  <0> d          -1.575   0.995   1.497  0.00  0.00     0.033 H 
ATOM     12  H2  <0> d           0.011   1.366   2.120  0.00  0.00     0.033 H 
ATOM     13  H3  <0> d           0.002  -0.004   0.002  0.00  0.00     0.034 H 
ATOM     14  H4  <0> d           1.031   1.434  -0.000  0.00  0.00     0.034 H 
ATOM     15  H5  <0> d          -0.167   1.332  -2.058  0.00  0.00     0.051 H 
ATOM     16  H6  <0> d          -2.511   1.238  -2.376  0.00  0.00     0.034 H 
ATOM     17  H7  <0> d          -2.039  -0.098  -1.321  0.00  0.00     0.034 H 
ATOM     18  H8  <0> d          -4.096   1.215  -0.652  0.00  0.00     0.033 H 
ATOM     19  H9  <0> d          -2.928   0.966   0.618  0.00  0.00     0.033 H 
ATOM     20  H10 <0> d          -3.564   3.483  -0.956  0.00  0.00     0.034 H 
ATOM     21  H11 <0> d          -3.642   3.237   0.793  0.00  0.00     0.034 H 
ATOM     22  H12 <0> d          -1.705   4.569   0.060  0.00  0.00     0.051 H 
ATOM     23  H13 <0> d          -0.047   3.618   1.461  0.00  0.00     0.034 H 
ATOM     24  H14 <0> d          -1.633   3.286   2.165  0.00  0.00     0.034 H 
ENDROOT
TORSDOF 0
