REMARK  6 active torsions:
REMARK  status: ('A' for Active; 'I' for Inactive)
REMARK    1  A    between atoms: C1_1  and  C2_2 
REMARK    2  A    between atoms: C4_4  and  N3_11 
REMARK    3  A    between atoms: N1_5  and  C5_7 
REMARK    4  A    between atoms: C5_7  and  C6_8 
REMARK    5  A    between atoms: C6_8  and  C7_9 
REMARK    6  A    between atoms: C6_8  and  C8_10 
ROOT
ATOM      1  C2  <0> d          -3.671  -0.442   1.818  0.00  0.00     0.054 A 
ATOM      2  C3  <0> d          -4.210   0.627   1.098  0.00  0.00    -0.015 A 
ATOM      3  C4  <0> d          -3.198   1.494   0.818  0.00  0.00     0.119 A 
ATOM      4  N1  <0> d          -2.062   0.977   1.338  0.00  0.00    -0.254 N 
ATOM      5  N2  <0> d          -2.387  -0.234   1.962  0.00  0.00    -0.176 NA
ATOM      6  H4  <0> d          -5.247   0.747   0.818  0.00  0.00     0.092 H 
ENDROOT
BRANCH   4   7
ATOM      7  C5  <0> d          -0.729   1.579   1.267  0.00  0.00     0.021 C 
ATOM      8  H5  <0> d          -0.154   1.294   2.148  0.00  0.00     0.068 H 
ATOM      9  H6  <0> d          -0.822   2.665   1.230  0.00  0.00     0.068 H 
BRANCH   7  10
ATOM     10  C6  <0> d          -0.013   1.086   0.008  0.00  0.00    -0.044 C 
ATOM     11  H7  <0> d           0.002  -0.004   0.002  0.00  0.00     0.041 H 
BRANCH  10  12
ATOM     12  C7  <0> d           1.423   1.615  -0.003  0.00  0.00    -0.072 C 
ATOM     13  H8  <0> d           1.408   2.705   0.003  0.00  0.00     0.028 H 
ATOM     14  H9  <0> d           1.950   1.254   0.880  0.00  0.00     0.028 H 
ATOM     15  H10 <0> d           1.933   1.264  -0.900  0.00  0.00     0.028 H 
ENDBRANCH  10  12
BRANCH  10  16
ATOM     16  C8  <0> d          -0.753   1.593  -1.232  0.00  0.00    -0.072 C 
ATOM     17  H11 <0> d          -0.242   1.241  -2.128  0.00  0.00     0.028 H 
ATOM     18  H12 <0> d          -1.775   1.215  -1.224  0.00  0.00     0.028 H 
ATOM     19  H13 <0> d          -0.767   2.683  -1.226  0.00  0.00     0.028 H 
ENDBRANCH  10  16
ENDBRANCH   7  10
ENDBRANCH   4   7
BRANCH   3  20
ATOM     20  N3  <0> d          -3.312   2.693   0.119  0.00  0.00    -0.384 N 
ATOM     21  H14 <0> d          -2.526   3.242  -0.033  0.00  0.00     0.157 HD
ATOM     22  H15 <0> d          -4.176   2.979  -0.216  0.00  0.00     0.157 HD
ENDBRANCH   3  20
BRANCH   1  23
ATOM     23  C1  <0> d          -4.436  -1.631   2.340  0.00  0.00    -0.034 C 
ATOM     24  H1  <0> d          -4.800  -1.416   3.345  0.00  0.00     0.035 H 
ATOM     25  H2  <0> d          -5.282  -1.835   1.683  0.00  0.00     0.035 H 
ATOM     26  H3  <0> d          -3.781  -2.501   2.369  0.00  0.00     0.035 H 
ENDBRANCH   1  23
TORSDOF 6
