REMARK  5 active torsions:
REMARK  status: ('A' for Active; 'I' for Inactive)
REMARK    1  A    between atoms: C1_1  and  C2_2 
REMARK    2  A    between atoms: C2_2  and  C8_10 
REMARK    3  A    between atoms: C3_3  and  O2_9 
REMARK    4  A    between atoms: C4_4  and  C6_7 
REMARK    5  A    between atoms: C4_4  and  C7_8 
ROOT
ATOM      1  C2  <0> d          -0.968   1.629  -0.849  0.00  0.00     0.041 C 
ATOM      2  C3  <0> d          -0.119   1.179   0.352  0.00  0.00     0.062 C 
ATOM      3  C4  <0> d          -1.097   1.972   1.235  0.00  0.00     0.041 C 
ATOM      4  C5  <0> d          -1.393   2.808   0.003  0.00  0.00     0.147 C 
ATOM      5  O1  <0> d          -1.793   3.928  -0.207  0.00  0.00    -0.296 OA
ATOM      6  H4  <0> d          -0.144   0.103   0.528  0.00  0.00     0.086 H 
ENDROOT
BRANCH   1   7
ATOM      7  C1  <0> d          -0.139   2.023  -2.073  0.00  0.00    -0.060 C 
ATOM      8  H1  <0> d           0.457   1.170  -2.398  0.00  0.00     0.029 H 
ATOM      9  H2  <0> d          -0.806   2.329  -2.880  0.00  0.00     0.029 H 
ATOM     10  H3  <0> d           0.521   2.850  -1.814  0.00  0.00     0.029 H 
ENDBRANCH   1   7
BRANCH   1  11
ATOM     11  C8  <0> d          -2.112   0.670  -1.186  0.00  0.00    -0.060 C 
ATOM     12  H12 <0> d          -2.618   0.371  -0.268  0.00  0.00     0.029 H 
ATOM     13  H13 <0> d          -2.821   1.169  -1.846  0.00  0.00     0.029 H 
ATOM     14  H14 <0> d          -1.711  -0.213  -1.684  0.00  0.00     0.029 H 
ENDBRANCH   1  11
BRANCH   2  15
ATOM     15  O2  <0> d           1.208   1.709   0.348  0.00  0.00    -0.393 OA
ATOM     16  H11 <0> d           1.738   1.450   1.114  0.00  0.00     0.210 HD
ENDBRANCH   2  15
BRANCH   3  17
ATOM     17  C6  <0> d          -2.292   1.149   1.720  0.00  0.00    -0.060 C 
ATOM     18  H5  <0> d          -1.975   0.123   1.908  0.00  0.00     0.029 H 
ATOM     19  H6  <0> d          -2.682   1.583   2.641  0.00  0.00     0.029 H 
ATOM     20  H7  <0> d          -3.071   1.155   0.958  0.00  0.00     0.029 H 
ENDBRANCH   3  17
BRANCH   3  21
ATOM     21  C7  <0> d          -0.415   2.753   2.360  0.00  0.00    -0.060 C 
ATOM     22  H8  <0> d           0.288   3.468   1.931  0.00  0.00     0.029 H 
ATOM     23  H9  <0> d          -1.168   3.288   2.940  0.00  0.00     0.029 H 
ATOM     24  H10 <0> d           0.121   2.062   3.010  0.00  0.00     0.029 H 
ENDBRANCH   3  21
TORSDOF 5
