REMARK  3 active torsions:
REMARK  status: ('A' for Active; 'I' for Inactive)
REMARK    1  A    between atoms: C1_1  and  C2_2 
REMARK    2  A    between atoms: C2_2  and  C4_4 
REMARK    3  A    between atoms: C4_4  and  C5_5 
ROOT
ATOM      1  C5  <0> d           1.180   2.145   0.002  0.00  0.00    -0.034 A 
ATOM      2  C6  <0> d           1.154   3.525   0.010  0.00  0.00    -0.075 A 
ATOM      3  C7  <0> d          -0.055   4.197   0.025  0.00  0.00    -0.082 A 
ATOM      4  C8  <0> d          -1.246   3.492   0.032  0.00  0.00    -0.082 A 
ATOM      5  C9  <0> d          -1.234   2.113   0.019  0.00  0.00    -0.062 A 
ATOM      6  C10 <0> d          -0.017   1.428   0.010  0.00  0.00     0.051 A 
ATOM      7  C11 <0> d           0.002  -0.004   0.002  0.00  0.00     0.100 C 
ATOM      8  N1  <0> d           0.018  -1.140  -0.004  0.00  0.00    -0.191 NA
ATOM      9  H8  <0> d           2.080   4.081   0.004  0.00  0.00     0.084 H 
ATOM     10  H9  <0> d          -0.070   5.277   0.030  0.00  0.00     0.083 H 
ATOM     11  H10 <0> d          -2.186   4.023   0.043  0.00  0.00     0.083 H 
ATOM     12  H11 <0> d          -2.164   1.564   0.021  0.00  0.00     0.085 H 
ENDROOT
BRANCH   1  13
ATOM     13  C4  <0> d           2.498   1.415  -0.015  0.00  0.00    -0.020 C 
ATOM     14  H6  <0> d           3.272   2.051   0.416  0.00  0.00     0.046 H 
ATOM     15  H7  <0> d           2.414   0.499   0.570  0.00  0.00     0.046 H 
BRANCH  13  16
ATOM     16  C2  <0> d           2.864   1.071  -1.436  0.00  0.00    -0.089 C 
ATOM     17  C3  <0> d           3.651   1.864  -2.120  0.00  0.00    -0.119 C 
ATOM     18  H4  <0> d           3.913   1.618  -3.138  0.00  0.00     0.067 H 
ATOM     19  H5  <0> d           4.037   2.764  -1.665  0.00  0.00     0.067 H 
BRANCH  16  20
ATOM     20  C1  <0> d           2.324  -0.185  -2.070  0.00  0.00    -0.055 C 
ATOM     21  H1  <0> d           1.694  -0.712  -1.353  0.00  0.00     0.033 H 
ATOM     22  H2  <0> d           1.735   0.076  -2.949  0.00  0.00     0.033 H 
ATOM     23  H3  <0> d           3.153  -0.828  -2.366  0.00  0.00     0.033 H 
ENDBRANCH  16  20
ENDBRANCH  13  16
ENDBRANCH   1  13
TORSDOF 3
