REMARK  4 active torsions:
REMARK  status: ('A' for Active; 'I' for Inactive)
REMARK    1  A    between atoms: C1_1  and  C2_2 
REMARK    2  A    between atoms: C2_2  and  C3_3 
REMARK    3  A    between atoms: C3_3  and  C4_4 
REMARK    4  A    between atoms: C4_4  and  C5_6 
ROOT
ATOM      1  C5  <0> d           1.391  -2.743  -2.406  0.00  0.00     0.061 C 
ATOM      2  H1  <0> d           2.252  -2.182  -2.768  0.00  0.00     0.063 H 
ATOM      3  C6  <0> d           1.832  -4.146  -1.941  0.00  0.00    -0.049 C 
ATOM      4  C7  <0> d           1.547  -5.047  -3.170  0.00  0.00    -0.058 C 
ATOM      5  C8  <0> d           0.234  -4.442  -3.727  0.00  0.00    -0.009 C 
ATOM      6  C9  <0> d           0.395  -2.944  -3.529  0.00  0.00     0.138 C 
ATOM      7  O2  <0> d          -0.168  -2.075  -4.150  0.00  0.00    -0.297 OA
ATOM      8  H9  <0> d           2.895  -4.153  -1.700  0.00  0.00     0.034 H 
ATOM      9  H10 <0> d           1.241  -4.470  -1.084  0.00  0.00     0.034 H 
ATOM     10  H11 <0> d           2.351  -4.970  -3.902  0.00  0.00     0.033 H 
ATOM     11  H12 <0> d           1.397  -6.083  -2.865  0.00  0.00     0.033 H 
ATOM     12  H13 <0> d           0.127  -4.676  -4.786  0.00  0.00     0.044 H 
ATOM     13  H14 <0> d          -0.624  -4.811  -3.165  0.00  0.00     0.044 H 
ENDROOT
BRANCH   1  14
ATOM     14  C4  <0> d           0.739  -2.004  -1.265  0.00  0.00     0.138 C 
ATOM     15  O1  <0> d           0.233  -2.620  -0.358  0.00  0.00    -0.297 OA
BRANCH  14  16
ATOM     16  C3  <0> d           0.718  -0.497  -1.257  0.00  0.00    -0.009 C 
ATOM     17  H7  <0> d           0.191  -0.136  -2.140  0.00  0.00     0.044 H 
ATOM     18  H8  <0> d           1.741  -0.120  -1.264  0.00  0.00     0.044 H 
BRANCH  16  19
ATOM     19  C2  <0> d           0.002  -0.004   0.002  0.00  0.00    -0.062 C 
ATOM     20  H5  <0> d           0.529  -0.365   0.885  0.00  0.00     0.033 H 
ATOM     21  H6  <0> d          -1.020  -0.381   0.010  0.00  0.00     0.033 H 
BRANCH  19  22
ATOM     22  C1  <0> d          -0.019   1.526   0.010  0.00  0.00    -0.076 C 
ATOM     23  H2  <0> d           1.004   1.903   0.003  0.00  0.00     0.027 H 
ATOM     24  H3  <0> d          -0.546   1.887  -0.873  0.00  0.00     0.027 H 
ATOM     25  H4  <0> d          -0.529   1.877   0.907  0.00  0.00     0.027 H 
ENDBRANCH  19  22
ENDBRANCH  16  19
ENDBRANCH  14  16
ENDBRANCH   1  14
TORSDOF 4
