REMARK  3 active torsions:
REMARK  status: ('A' for Active; 'I' for Inactive)
REMARK    1  A    between atoms: C1_1  and  C2_2 
REMARK    2  A    between atoms: C2_2  and  O1_3 
REMARK    3  A    between atoms: O1_3  and  C3_4 
REMARK       I    between atoms: C3_4  and  N1_6 
ROOT
ATOM      1  C3  <0> d           0.002  -0.004   0.002  0.00  0.00     0.363 C 
ATOM      2  O2  <0> d           1.062  -0.597  -0.011  0.00  0.00    -0.238 OA
ATOM      3  N1  <0> d          -0.016   1.344   0.009  0.00  0.00    -0.314 N 
ATOM      4  C4  <0> d          -1.049   2.391   0.018  0.00  0.00     0.057 C 
ATOM      5  C5  <0> d          -0.049   3.302  -0.653  0.00  0.00     0.162 C 
ATOM      6  O3  <0> d          -0.069   4.270  -1.374  0.00  0.00    -0.294 OA
ATOM      7  C6  <0> d           0.988   2.419   0.006  0.00  0.00     0.057 C 
ATOM      8  H6  <0> d          -1.861   2.063  -0.465  0.00  0.00     0.076 H 
ATOM      9  H7  <0> d          -1.330   2.717   1.020  0.00  0.00     0.076 H 
ATOM     10  H8  <0> d           1.299   2.588   0.941  0.00  0.00     0.076 H 
ATOM     11  H9  <0> d           1.848   2.209  -0.631  0.00  0.00     0.076 H 
ENDROOT
BRANCH   1  12
ATOM     12  O1  <0> d          -1.155  -0.693   0.009  0.00  0.00    -0.304 OA
BRANCH  12  13
ATOM     13  C2  <0> d          -1.059  -2.142   0.001  0.00  0.00     0.027 C 
ATOM     14  H4  <0> d          -0.531  -2.466  -0.896  0.00  0.00     0.074 H 
ATOM     15  H5  <0> d          -0.514  -2.475   0.884  0.00  0.00     0.074 H 
BRANCH  13  16
ATOM     16  C1  <0> d          -2.465  -2.746   0.011  0.00  0.00    -0.056 C 
ATOM     17  H1  <0> d          -2.993  -2.422   0.908  0.00  0.00     0.030 H 
ATOM     18  H2  <0> d          -3.010  -2.412  -0.872  0.00  0.00     0.030 H 
ATOM     19  H3  <0> d          -2.393  -3.833   0.004  0.00  0.00     0.030 H 
ENDBRANCH  13  16
ENDBRANCH  12  13
ENDBRANCH   1  12
TORSDOF 3
