REMARK  1 active torsions:
REMARK  status: ('A' for Active; 'I' for Inactive)
REMARK    1  A    between atoms: C1_1  and  C2_2 
ROOT
ATOM      1  C2  <0> d           2.287   1.378   0.833  0.00  0.00     0.036 C 
ATOM      2  H1  <0> d           2.050   1.463   1.903  0.00  0.00     0.056 H 
ATOM      3  C3  <0> d           1.229   2.108   0.002  0.00  0.00     0.008 C 
ATOM      4  N1  <0> d          -0.016   1.339   0.009  0.00  0.00    -0.342 N 
ATOM      5  C4  <0> d           0.002  -0.004   0.002  0.00  0.00     0.322 C 
ATOM      6  O1  <0> d          -1.046  -0.611  -0.097  0.00  0.00    -0.247 OA
ATOM      7  N2  <0> d           1.151  -0.693   0.101  0.00  0.00    -0.279 N 
ATOM      8  C5  <0> d           2.298  -0.081   0.449  0.00  0.00     0.231 C 
ATOM      9  O2  <0> d           3.339  -0.702   0.456  0.00  0.00    -0.273 OA
ATOM     10  H5  <0> d           1.048   3.104   0.433  0.00  0.00     0.065 H 
ATOM     11  H6  <0> d           1.587   2.216  -1.033  0.00  0.00     0.065 H 
ATOM     12  H7  <0> d          -0.985   1.860   0.021  0.00  0.00     0.164 HD
ATOM     13  H8  <0> d           1.164  -1.773  -0.104  0.00  0.00     0.173 HD
ENDROOT
BRANCH   1  14
ATOM     14  C1  <0> d           3.663   1.988   0.560  0.00  0.00    -0.063 C 
ATOM     15  H2  <0> d           3.654   3.052   0.840  0.00  0.00     0.028 H 
ATOM     16  H3  <0> d           3.901   1.893  -0.510  0.00  0.00     0.028 H 
ATOM     17  H4  <0> d           4.423   1.460   1.153  0.00  0.00     0.028 H 
ENDBRANCH   1  14
TORSDOF 1
