REMARK  6 active torsions:
REMARK  status: ('A' for Active; 'I' for Inactive)
REMARK    1  A    between atoms: C1_1  and  C2_2 
REMARK    2  A    between atoms: C2_2  and  C3_3 
REMARK    3  A    between atoms: C3_3  and  C4_4 
REMARK    4  A    between atoms: C4_4  and  O1_5 
REMARK    5  A    between atoms: O1_5  and  C5_6 
REMARK    6  A    between atoms: C7_9  and  C8_11 
ROOT
ATOM      1  C4  <0> d           2.711   3.313  -1.264  0.00  0.00     0.020 C 
ATOM      2  H10 <0> d           2.992   2.509  -1.961  0.00  0.00     0.074 H 
ATOM      3  H11 <0> d           3.447   3.365  -0.448  0.00  0.00     0.074 H 
ENDROOT
BRANCH   1   4
ATOM      4  C3  <0> d           2.682   4.648  -2.010  0.00  0.00    -0.045 C 
ATOM      5  H8  <0> d           2.401   5.451  -1.314  0.00  0.00     0.036 H 
ATOM      6  H9  <0> d           1.946   4.596  -2.826  0.00  0.00     0.036 H 
BRANCH   4   7
ATOM      7  C2  <0> d           4.068   4.938  -2.591  0.00  0.00    -0.067 C 
ATOM      8  H6  <0> d           4.349   4.135  -3.287  0.00  0.00     0.032 H 
ATOM      9  H7  <0> d           4.803   4.990  -1.775  0.00  0.00     0.032 H 
BRANCH   7  10
ATOM     10  C1  <0> d           4.039   6.273  -3.337  0.00  0.00    -0.076 C 
ATOM     11  H3  <0> d           5.035   6.482  -3.754  0.00  0.00     0.027 H 
ATOM     12  H4  <0> d           3.757   7.077  -2.640  0.00  0.00     0.027 H 
ATOM     13  H5  <0> d           3.303   6.221  -4.153  0.00  0.00     0.027 H 
ENDBRANCH   7  10
ENDBRANCH   4   7
ENDBRANCH   1   4
BRANCH   1  14
ATOM     14  O1  <0> d           1.417   3.042  -0.722  0.00  0.00    -0.385 OA
BRANCH  14  15
ATOM     15  C5  <0> d           1.335   1.811  -0.001  0.00  0.00     0.052 A 
ATOM     16  H1  <0> d           2.373   1.571  -0.276  0.00  0.00     0.084 H 
ATOM     17  C7  <0> d          -0.013   1.086   0.008  0.00  0.00     0.058 A 
ATOM     18  C6  <0> d           0.484   1.792   1.271  0.00  0.00    -0.025 A 
ATOM     19  H2  <0> d          -0.359   0.071  -0.238  0.00  0.00     0.060 H 
ATOM     20  H12 <0> d           1.050   1.312   2.083  0.00  0.00     0.038 H 
ATOM     21  H13 <0> d           0.233   2.824   1.559  0.00  0.00     0.038 H 
BRANCH  17  22
ATOM     22  C8  <0> d          -1.151   1.724  -0.745  0.00  0.00     0.179 C 
ATOM     23  O2  <0> d          -0.980   2.769  -1.326  0.00  0.00    -0.648 OA
ATOM     24  O3  <0> d          -2.356   1.133  -0.768  0.00  0.00    -0.648 OA
ENDBRANCH  17  22
ENDBRANCH  14  15
ENDBRANCH   1  14
TORSDOF 6
