REMARK  4 active torsions:
REMARK  status: ('A' for Active; 'I' for Inactive)
REMARK    1  A    between atoms: C1_1  and  C2_2 
REMARK    2  A    between atoms: C5_6  and  C7_9 
REMARK    3  A    between atoms: C5_6  and  C8_10 
REMARK    4  A    between atoms: C8_10  and  O2_11 
ROOT
ATOM      1  C2  <0> d           1.694   5.627   1.259  0.00  0.00    -0.037 C 
ATOM      2  H1  <0> d           1.538   6.705   1.293  0.00  0.00     0.042 H 
ATOM      3  C3  <0> d           2.385   5.251  -0.056  0.00  0.00    -0.057 C 
ATOM      4  C4  <0> d           2.528   3.727  -0.126  0.00  0.00    -0.034 C 
ATOM      5  C5  <0> d           1.145   3.085   0.008  0.00  0.00     0.078 C 
ATOM      6  O1  <0> d           0.546   3.501   1.237  0.00  0.00    -0.378 OA
ATOM      7  C6  <0> d           0.343   4.911   1.340  0.00  0.00     0.024 C 
ATOM      8  H5  <0> d           1.784   5.600  -0.896  0.00  0.00     0.033 H 
ATOM      9  H6  <0> d           3.371   5.712  -0.094  0.00  0.00     0.033 H 
ATOM     10  H7  <0> d           3.169   3.384   0.685  0.00  0.00     0.037 H 
ATOM     11  H8  <0> d           2.969   3.447  -1.083  0.00  0.00     0.037 H 
ATOM     12  H9  <0> d          -0.296   5.247   0.523  0.00  0.00     0.074 H 
ATOM     13  H10 <0> d          -0.134   5.141   2.292  0.00  0.00     0.074 H 
ENDROOT
BRANCH   5  14
ATOM     14  C7  <0> d           0.263   3.523  -1.163  0.00  0.00    -0.046 C 
ATOM     15  H11 <0> d          -0.722   3.066  -1.067  0.00  0.00     0.031 H 
ATOM     16  H12 <0> d           0.162   4.608  -1.157  0.00  0.00     0.031 H 
ATOM     17  H13 <0> d           0.721   3.207  -2.101  0.00  0.00     0.031 H 
ENDBRANCH   5  14
BRANCH   5  18
ATOM     18  C8  <0> d           1.286   1.562  -0.002  0.00  0.00     0.045 C 
ATOM     19  H14 <0> d           1.840   1.243   0.881  0.00  0.00     0.078 H 
ATOM     20  H15 <0> d           1.823   1.252  -0.899  0.00  0.00     0.078 H 
BRANCH  18  21
ATOM     21  O2  <0> d          -0.011   0.963   0.007  0.00  0.00    -0.398 OA
ATOM     22  H16 <0> d           0.002  -0.004   0.002  0.00  0.00     0.209 HD
ENDBRANCH  18  21
ENDBRANCH   5  18
BRANCH   1  23
ATOM     23  C1  <0> d           2.570   5.200   2.438  0.00  0.00    -0.071 C 
ATOM     24  H2  <0> d           2.727   4.122   2.402  0.00  0.00     0.028 H 
ATOM     25  H3  <0> d           3.531   5.709   2.380  0.00  0.00     0.028 H 
ATOM     26  H4  <0> d           2.075   5.463   3.373  0.00  0.00     0.028 H 
ENDBRANCH   1  23
TORSDOF 4
