REMARK  2 active torsions:
REMARK  status: ('A' for Active; 'I' for Inactive)
REMARK    1  A    between atoms: C1_1  and  C2_2 
REMARK    2  A    between atoms: C2_2  and  C9_9 
ROOT
ATOM      1  C2  <0> d          -0.016   1.327   0.009  0.00  0.00     0.017 C 
ATOM      2  C3  <0> d           0.087   0.003   0.107  0.00  0.00    -0.067 C 
ATOM      3  C4  <0> d           1.428  -0.683  -0.030  0.00  0.00    -0.044 C 
ATOM      4  C5  <0> d           1.619  -1.614   1.178  0.00  0.00    -0.062 C 
ATOM      5  C6  <0> d           0.430  -2.570   1.273  0.00  0.00    -0.065 C 
ATOM      6  C7  <0> d          -0.852  -1.779   1.539  0.00  0.00    -0.062 C 
ATOM      7  C8  <0> d          -1.135  -0.854   0.351  0.00  0.00    -0.044 C 
ATOM      8  H4  <0> d           1.450  -1.264  -0.951  0.00  0.00     0.039 H 
ATOM      9  H5  <0> d           2.221   0.065  -0.047  0.00  0.00     0.039 H 
ATOM     10  H6  <0> d           1.683  -1.021   2.090  0.00  0.00     0.033 H 
ATOM     11  H7  <0> d           2.538  -2.187   1.051  0.00  0.00     0.033 H 
ATOM     12  H8  <0> d           0.596  -3.276   2.087  0.00  0.00     0.033 H 
ATOM     13  H9  <0> d           0.330  -3.117   0.335  0.00  0.00     0.033 H 
ATOM     14  H10 <0> d          -0.729  -1.183   2.443  0.00  0.00     0.033 H 
ATOM     15  H11 <0> d          -1.685  -2.470   1.669  0.00  0.00     0.033 H 
ATOM     16  H12 <0> d          -1.990  -0.216   0.580  0.00  0.00     0.039 H 
ATOM     17  H13 <0> d          -1.349  -1.448  -0.537  0.00  0.00     0.039 H 
ENDROOT
BRANCH   1  18
ATOM     18  C1  <0> d           1.226   2.172  -0.112  0.00  0.00    -0.045 C 
ATOM     19  H1  <0> d           1.731   1.943  -1.050  0.00  0.00     0.033 H 
ATOM     20  H2  <0> d           0.950   3.227  -0.096  0.00  0.00     0.033 H 
ATOM     21  H3  <0> d           1.894   1.958   0.722  0.00  0.00     0.033 H 
ENDBRANCH   1  18
BRANCH   1  22
ATOM     22  C9  <0> d          -1.341   1.963   0.014  0.00  0.00     0.205 C 
ATOM     23  O1  <0> d          -1.851   2.312  -1.032  0.00  0.00    -0.644 OA
ATOM     24  O2  <0> d          -1.990   2.160   1.179  0.00  0.00    -0.644 OA
ENDBRANCH   1  22
TORSDOF 2
