REMARK  2 active torsions:
REMARK  status: ('A' for Active; 'I' for Inactive)
REMARK    1  A    between atoms: C2_2  and  C3_3 
REMARK    2  A    between atoms: C9_10  and  O1_12 
ROOT
ATOM      1  C1  <0> d           0.018  -1.178  -0.004  0.00  0.00    -0.154 C 
ATOM      2  C2  <0> d           0.002  -0.004   0.002  0.00  0.00    -0.110 C 
ATOM      3  H3  <0> d           0.032  -2.228  -0.010  0.00  0.00     0.166 H 
ENDROOT
BRANCH   2   4
ATOM      4  C3  <0> d          -0.018   1.468   0.010  0.00  0.00     0.029 C 
ATOM      5  H1  <0> d           1.009   1.834   0.002  0.00  0.00     0.063 H 
ATOM      6  C9  <0> d          -0.717   1.952  -1.231  0.00  0.00     0.049 C 
ATOM      7  C8  <0> d          -0.040   3.257  -1.697  0.00  0.00    -0.040 C 
ATOM      8  H2  <0> d          -1.767   2.143  -1.009  0.00  0.00     0.084 H 
ATOM      9  C7  <0> d          -0.486   4.416  -0.939  0.00  0.00    -0.063 C 
ATOM     10  H12 <0> d           1.040   3.155  -1.583  0.00  0.00     0.036 H 
ATOM     11  H13 <0> d          -0.267   3.416  -2.751  0.00  0.00     0.036 H 
ATOM     12  C6  <0> d          -0.143   4.305   0.561  0.00  0.00    -0.065 C 
ATOM     13  H10 <0> d          -0.011   5.308  -1.345  0.00  0.00     0.033 H 
ATOM     14  H11 <0> d          -1.567   4.512  -1.046  0.00  0.00     0.033 H 
ATOM     15  C5  <0> d          -1.164   3.419   1.221  0.00  0.00    -0.064 C 
ATOM     16  H8  <0> d           0.850   3.869   0.678  0.00  0.00     0.033 H 
ATOM     17  H9  <0> d          -0.164   5.295   1.016  0.00  0.00     0.033 H 
ATOM     18  C4  <0> d          -0.709   1.950   1.300  0.00  0.00    -0.050 C 
ATOM     19  H6  <0> d          -1.349   3.786   2.231  0.00  0.00     0.033 H 
ATOM     20  H7  <0> d          -2.093   3.468   0.653  0.00  0.00     0.033 H 
ATOM     21  H4  <0> d          -1.579   1.321   1.488  0.00  0.00     0.035 H 
ATOM     22  H5  <0> d          -0.014   1.843   2.132  0.00  0.00     0.035 H 
BRANCH   6  23
ATOM     23  O1  <0> d          -0.616   0.962  -2.256  0.00  0.00    -0.394 OA
ATOM     24  H14 <0> d          -1.046   1.209  -3.086  0.00  0.00     0.210 HD
ENDBRANCH   6  23
ENDBRANCH   2   4
TORSDOF 2
