REMARK  5 active torsions:
REMARK  status: ('A' for Active; 'I' for Inactive)
REMARK    1  A    between atoms: C3_3  and  O3_11 
REMARK    2  A    between atoms: C4_4  and  C7_9 
REMARK    3  A    between atoms: C5_6  and  C6_7 
REMARK    4  A    between atoms: C6_7  and  O1_8 
REMARK    5  A    between atoms: C7_9  and  O2_10 
ROOT
ATOM      1  C1  <0> d          -0.113   3.630   0.023  0.00  0.00    -0.054 A 
ATOM      2  C2  <0> d          -0.233   5.010   0.032  0.00  0.00    -0.047 A 
ATOM      3  C3  <0> d           0.929   5.775   0.025  0.00  0.00     0.092 A 
ATOM      4  C4  <0> d           2.158   5.132   0.010  0.00  0.00     0.091 A 
ATOM      5  N1  <0> d           2.229   3.816   0.007  0.00  0.00    -0.251 NA
ATOM      6  C5  <0> d           1.147   3.062   0.008  0.00  0.00     0.058 A 
ATOM      7  H1  <0> d          -0.994   3.005   0.028  0.00  0.00     0.086 H 
ATOM      8  H2  <0> d          -1.205   5.481   0.044  0.00  0.00     0.087 H 
ENDROOT
BRANCH   4   9
ATOM      9  C7  <0> d           3.426   5.947   0.003  0.00  0.00     0.059 C 
ATOM     10  H6  <0> d           4.208   5.398  -0.522  0.00  0.00     0.083 H 
ATOM     11  H7  <0> d           3.245   6.895  -0.504  0.00  0.00     0.083 H 
BRANCH   9  12
ATOM     12  O2  <0> d           3.839   6.197   1.348  0.00  0.00    -0.395 OA
ATOM     13  H8  <0> d           4.651   6.718   1.419  0.00  0.00     0.209 HD
ENDBRANCH   9  12
ENDBRANCH   4   9
BRANCH   3  14
ATOM     14  O3  <0> d           0.861   7.133   0.034  0.00  0.00    -0.359 OA
ATOM     15  H9  <0> d           0.849   7.520   0.920  0.00  0.00     0.217 HD
ENDBRANCH   3  14
BRANCH   6  16
ATOM     16  C6  <0> d           1.286   1.562  -0.002  0.00  0.00     0.056 C 
ATOM     17  H3  <0> d           1.840   1.243   0.881  0.00  0.00     0.083 H 
ATOM     18  H4  <0> d           1.823   1.252  -0.899  0.00  0.00     0.083 H 
BRANCH  16  19
ATOM     19  O1  <0> d          -0.011   0.963   0.007  0.00  0.00    -0.395 OA
ATOM     20  H5  <0> d           0.002  -0.004   0.002  0.00  0.00     0.209 HD
ENDBRANCH  16  19
ENDBRANCH   6  16
TORSDOF 5
