REMARK  2 active torsions:
REMARK  status: ('A' for Active; 'I' for Inactive)
REMARK    1  A    between atoms: C1_1  and  O1_2 
REMARK    2  A    between atoms: O1_2  and  C2_3 
ROOT
ATOM      1  C2  <0> d           2.401   0.030  -0.021  0.00  0.00     0.074 A 
ATOM      2  C3  <0> d           1.209  -0.680  -0.014  0.00  0.00    -0.013 A 
ATOM      3  C4  <0> d           0.002  -0.004   0.002  0.00  0.00     0.121 A 
ATOM      4  C5  <0> d          -0.017   1.380   0.010  0.00  0.00    -0.008 A 
ATOM      5  C6  <0> d           1.172   2.090   0.002  0.00  0.00     0.121 A 
ATOM      6  C7  <0> d           2.381   1.417  -0.013  0.00  0.00    -0.013 A 
ATOM      7  F1  <0> d           1.152   3.441   0.010  0.00  0.00    -0.206 F 
ATOM      8  F2  <0> d          -1.159  -0.695   0.009  0.00  0.00    -0.206 F 
ATOM      9  H4  <0> d           1.224  -1.760  -0.020  0.00  0.00     0.092 H 
ATOM     10  H5  <0> d          -0.960   1.907   0.017  0.00  0.00     0.092 H 
ATOM     11  H6  <0> d           3.308   1.970  -0.019  0.00  0.00     0.092 H 
ENDROOT
BRANCH   1  12
ATOM     12  O1  <0> d           3.587  -0.633  -0.037  0.00  0.00    -0.356 OA
BRANCH  12  13
ATOM     13  C1  <0> d           4.775   0.162  -0.044  0.00  0.00     0.010 C 
ATOM     14  H1  <0> d           4.800   0.786   0.849  0.00  0.00     0.066 H 
ATOM     15  H2  <0> d           5.648  -0.490  -0.057  0.00  0.00     0.066 H 
ATOM     16  H3  <0> d           4.782   0.796  -0.930  0.00  0.00     0.066 H 
ENDBRANCH  12  13
ENDBRANCH   1  12
TORSDOF 2
