REMARK  2 active torsions:
REMARK  status: ('A' for Active; 'I' for Inactive)
REMARK    1  A    between atoms: C1_1  and  C2_2 
REMARK    2  A    between atoms: C2_2  and  C8_11 
ROOT
ATOM      1  C2  <0> d           2.194   0.114  -1.186  0.00  0.00     0.055 C 
ATOM      2  C3  <0> d           0.786  -0.486  -1.222  0.00  0.00    -0.022 C 
ATOM      3  C4  <0> d           0.002  -0.004   0.002  0.00  0.00     0.035 C 
ATOM      4  H1  <0> d           0.484  -0.367   0.910  0.00  0.00     0.063 H 
ATOM      5  C5  <0> d          -0.019   1.528   0.010  0.00  0.00    -0.030 C 
ATOM      6  C6  <0> d           1.420   2.050  -0.001  0.00  0.00     0.022 C 
ATOM      7  O1  <0> d           2.102   1.539  -1.148  0.00  0.00    -0.381 OA
ATOM      8  C7  <0> d          -1.377  -0.515  -0.062  0.00  0.00     0.064 C 
ATOM      9  N1  <0> d          -2.441  -0.909  -0.111  0.00  0.00    -0.197 NA
ATOM     10  H5  <0> d           0.853  -1.574  -1.206  0.00  0.00     0.039 H 
ATOM     11  H6  <0> d           0.276  -0.166  -2.131  0.00  0.00     0.039 H 
ATOM     12  H7  <0> d          -0.544   1.890  -0.873  0.00  0.00     0.038 H 
ATOM     13  H8  <0> d          -0.527   1.880   0.908  0.00  0.00     0.038 H 
ATOM     14  H9  <0> d           1.411   3.139  -0.038  0.00  0.00     0.074 H 
ATOM     15  H10 <0> d           1.933   1.721   0.903  0.00  0.00     0.074 H 
ENDROOT
BRANCH   1  16
ATOM     16  C1  <0> d           2.928  -0.384   0.061  0.00  0.00    -0.048 C 
ATOM     17  H2  <0> d           2.998  -1.471   0.033  0.00  0.00     0.031 H 
ATOM     18  H3  <0> d           3.931   0.044   0.087  0.00  0.00     0.031 H 
ATOM     19  H4  <0> d           2.380  -0.077   0.952  0.00  0.00     0.031 H 
ENDBRANCH   1  16
BRANCH   1  20
ATOM     20  C8  <0> d           2.964  -0.315  -2.436  0.00  0.00    -0.048 C 
ATOM     21  H11 <0> d           2.441   0.040  -3.324  0.00  0.00     0.031 H 
ATOM     22  H12 <0> d           3.967   0.112  -2.410  0.00  0.00     0.031 H 
ATOM     23  H13 <0> d           3.033  -1.403  -2.465  0.00  0.00     0.031 H 
ENDBRANCH   1  20
TORSDOF 2
