REMARK  1 active torsions:
REMARK  status: ('A' for Active; 'I' for Inactive)
REMARK    1  A    between atoms: C2_2  and  C5_8 
ROOT
ATOM      1  C1  <0> d           0.071   3.837   0.016  0.00  0.00     0.015 A 
ATOM      2  C2  <0> d           1.238   3.067   0.007  0.00  0.00     0.095 A 
ATOM      3  C3  <0> d           2.470   3.749   0.004  0.00  0.00     0.144 A 
ATOM      4  C4  <0> d           2.437   5.143   0.018  0.00  0.00     0.058 A 
ATOM      5  N1  <0> d           1.280   5.771   0.032  0.00  0.00    -0.185 NA
ATOM      6  N2  <0> d           0.157   5.153   0.028  0.00  0.00    -0.288 N 
ATOM      7  O1  <0> d           3.645   3.075  -0.010  0.00  0.00    -0.189 OA
ATOM      8  H1  <0> d          -0.896   3.356   0.013  0.00  0.00     0.115 H 
ATOM      9  H2  <0> d           3.358   5.706   0.017  0.00  0.00     0.122 H 
ATOM     10  H3  <0> d          -0.687   5.689   0.035  0.00  0.00     0.188 HD
ENDROOT
BRANCH   2  11
ATOM     11  C5  <0> d           1.181   1.591  -0.001  0.00  0.00     0.213 C 
ATOM     12  O2  <0> d           2.208   0.943  -0.014  0.00  0.00    -0.644 OA
ATOM     13  O3  <0> d          -0.011   0.963   0.007  0.00  0.00    -0.644 OA
ENDBRANCH   2  11
TORSDOF 1
