REMARK  2 active torsions:
REMARK  status: ('A' for Active; 'I' for Inactive)
REMARK    1  A    between atoms: C4_5  and  C6_8 
REMARK    2  A    between atoms: C6_8  and  C7_9 
ROOT
ATOM      1  C1  <0> d           2.147   1.406  -1.233  0.00  0.00    -0.061 C 
ATOM      2  C2  <0> d           1.419   1.953  -0.001  0.00  0.00    -0.045 C 
ATOM      3  C3  <0> d          -0.017   1.425   0.010  0.00  0.00     0.020 C 
ATOM      4  O1  <0> d           0.002  -0.004   0.002  0.00  0.00    -0.385 OA
ATOM      5  C4  <0> d           0.628  -0.573  -1.150  0.00  0.00     0.047 C 
ATOM      6  H1  <0> d           0.110  -0.238  -2.048  0.00  0.00     0.084 H 
ATOM      7  C5  <0> d           2.091  -0.124  -1.207  0.00  0.00    -0.040 C 
ATOM      8  H2  <0> d           3.187   1.733  -1.217  0.00  0.00     0.033 H 
ATOM      9  H3  <0> d           1.663   1.774  -2.137  0.00  0.00     0.033 H 
ATOM     10  H4  <0> d           1.407   3.042  -0.040  0.00  0.00     0.036 H 
ATOM     11  H5  <0> d           1.935   1.626   0.902  0.00  0.00     0.036 H 
ATOM     12  H6  <0> d          -0.544   1.786  -0.873  0.00  0.00     0.074 H 
ATOM     13  H7  <0> d          -0.527   1.776   0.907  0.00  0.00     0.074 H 
ATOM     14  H8  <0> d           2.620  -0.494  -0.329  0.00  0.00     0.036 H 
ATOM     15  H9  <0> d           2.559  -0.522  -2.108  0.00  0.00     0.036 H 
ENDROOT
BRANCH   5  16
ATOM     16  C6  <0> d           0.565  -2.099  -1.063  0.00  0.00     0.040 C 
ATOM     17  H10 <0> d           1.120  -2.533  -1.895  0.00  0.00     0.052 H 
ATOM     18  H11 <0> d           1.006  -2.428  -0.122  0.00  0.00     0.052 H 
BRANCH  16  19
ATOM     19  C7  <0> d          -0.872  -2.547  -1.129  0.00  0.00     0.175 C 
ATOM     20  O2  <0> d          -1.755  -1.730  -1.234  0.00  0.00    -0.648 OA
ATOM     21  O3  <0> d          -1.171  -3.854  -1.071  0.00  0.00    -0.648 OA
ENDBRANCH  16  19
ENDBRANCH   5  16
TORSDOF 2
