REMARK  5 active torsions:
REMARK  status: ('A' for Active; 'I' for Inactive)
REMARK    1  A    between atoms: C1_1  and  C2_2 
REMARK    2  A    between atoms: C2_2  and  C3_3 
REMARK    3  A    between atoms: C4_4  and  C5_5 
REMARK    4  A    between atoms: C6_6  and  C7_7 
REMARK    5  A    between atoms: C7_7  and  C8_8 
ROOT
ATOM      1  C3  <0> d           0.691  -0.479  -1.209  0.00  0.00    -0.093 C 
ATOM      2  C4  <0> d           1.241  -0.857  -2.175  0.00  0.00    -0.015 C 
ENDROOT
BRANCH   2   3
ATOM      3  C5  <0> d           1.885  -1.302  -3.308  0.00  0.00    -0.015 C 
ATOM      4  C6  <0> d           2.435  -1.680  -4.274  0.00  0.00    -0.093 C 
BRANCH   4   5
ATOM      5  C7  <0> d           3.124  -2.155  -5.485  0.00  0.00    -0.012 C 
ATOM      6  H6  <0> d           2.596  -1.794  -6.368  0.00  0.00     0.051 H 
ATOM      7  H7  <0> d           4.146  -1.778  -5.493  0.00  0.00     0.051 H 
BRANCH   5   8
ATOM      8  C8  <0> d           3.144  -3.685  -5.493  0.00  0.00    -0.066 C 
ATOM      9  H8  <0> d           2.122  -4.062  -5.486  0.00  0.00     0.028 H 
ATOM     10  H9  <0> d           3.655  -4.036  -6.390  0.00  0.00     0.028 H 
ATOM     11  H10 <0> d           3.671  -4.046  -4.610  0.00  0.00     0.028 H 
ENDBRANCH   5   8
ENDBRANCH   4   5
ENDBRANCH   2   3
BRANCH   1  12
ATOM     12  C2  <0> d           0.002  -0.004   0.002  0.00  0.00    -0.012 C 
ATOM     13  H4  <0> d           0.529  -0.365   0.885  0.00  0.00     0.051 H 
ATOM     14  H5  <0> d          -1.020  -0.381   0.010  0.00  0.00     0.051 H 
BRANCH  12  15
ATOM     15  C1  <0> d          -0.019   1.526   0.010  0.00  0.00    -0.066 C 
ATOM     16  H1  <0> d           1.004   1.903   0.003  0.00  0.00     0.028 H 
ATOM     17  H2  <0> d          -0.546   1.887  -0.873  0.00  0.00     0.028 H 
ATOM     18  H3  <0> d          -0.529   1.877   0.907  0.00  0.00     0.028 H 
ENDBRANCH  12  15
ENDBRANCH   1  12
TORSDOF 5
