REMARK  8 active torsions:
REMARK  status: ('A' for Active; 'I' for Inactive)
REMARK    1  A    between atoms: C1_1  and  C2_2 
REMARK    2  A    between atoms: C2_2  and  C3_3 
REMARK    3  A    between atoms: C3_3  and  C4_4 
REMARK    4  A    between atoms: C4_4  and  O1_5 
REMARK    5  A    between atoms: O1_5  and  C5_6 
REMARK    6  A    between atoms: C5_6  and  O3_8 
REMARK    7  A    between atoms: O3_8  and  C6_9 
REMARK    8  A    between atoms: C6_9  and  C7_10 
ROOT
ATOM      1  C4  <0> d          -2.395   1.060   0.019  0.00  0.00     0.031 C 
ATOM      2  H8  <0> d          -2.416   0.435  -0.874  0.00  0.00     0.075 H 
ATOM      3  H9  <0> d          -2.408   0.426   0.906  0.00  0.00     0.075 H 
ENDROOT
BRANCH   1   4
ATOM      4  C3  <0> d          -3.621   1.975   0.030  0.00  0.00    -0.045 C 
ATOM      5  H6  <0> d          -3.601   2.599   0.923  0.00  0.00     0.036 H 
ATOM      6  H7  <0> d          -3.609   2.609  -0.857  0.00  0.00     0.036 H 
BRANCH   4   7
ATOM      7  C2  <0> d          -4.893   1.124   0.031  0.00  0.00    -0.067 C 
ATOM      8  H4  <0> d          -4.913   0.500  -0.862  0.00  0.00     0.032 H 
ATOM      9  H5  <0> d          -4.905   0.490   0.918  0.00  0.00     0.032 H 
BRANCH   7  10
ATOM     10  C1  <0> d          -6.119   2.040   0.042  0.00  0.00    -0.076 C 
ATOM     11  H1  <0> d          -6.098   2.664   0.935  0.00  0.00     0.027 H 
ATOM     12  H2  <0> d          -6.107   2.674  -0.845  0.00  0.00     0.027 H 
ATOM     13  H3  <0> d          -7.025   1.434   0.043  0.00  0.00     0.027 H 
ENDBRANCH   7  10
ENDBRANCH   4   7
ENDBRANCH   1   4
BRANCH   1  14
ATOM     14  O1  <0> d          -1.188   1.867   0.018  0.00  0.00    -0.298 OA
BRANCH  14  15
ATOM     15  C5  <0> d          -0.014   1.210   0.009  0.00  0.00     0.406 C 
ATOM     16  O2  <0> d           0.002  -0.004   0.002  0.00  0.00    -0.230 OA
BRANCH  15  17
ATOM     17  O3  <0> d           1.141   1.899   0.001  0.00  0.00    -0.298 OA
BRANCH  17  18
ATOM     18  C6  <0> d           2.370   1.124  -0.015  0.00  0.00     0.028 C 
ATOM     19  H10 <0> d           2.412   0.491   0.872  0.00  0.00     0.074 H 
ATOM     20  H11 <0> d           2.395   0.501  -0.908  0.00  0.00     0.074 H 
BRANCH  18  21
ATOM     21  C7  <0> d           3.570   2.073  -0.021  0.00  0.00    -0.056 C 
ATOM     22  H12 <0> d           3.545   2.696   0.873  0.00  0.00     0.030 H 
ATOM     23  H13 <0> d           4.492   1.492  -0.033  0.00  0.00     0.030 H 
ATOM     24  H14 <0> d           3.528   2.706  -0.907  0.00  0.00     0.030 H 
ENDBRANCH  18  21
ENDBRANCH  17  18
ENDBRANCH  15  17
ENDBRANCH  14  15
ENDBRANCH   1  14
TORSDOF 8
