REMARK  4 active torsions:
REMARK  status: ('A' for Active; 'I' for Inactive)
REMARK    1  A    between atoms: C1_1  and  C2_2 
REMARK    2  A    between atoms: C2_2  and  C3_3 
REMARK    3  A    between atoms: C2_2  and  C4_4 
REMARK    4  A    between atoms: C2_2  and  C5_5 
ROOT
ATOM      1  C2  <0> d          -0.729   1.579   1.267  0.00  0.00    -0.029 C 
ENDROOT
BRANCH   1   2
ATOM      2  C1  <0> d          -0.013   1.086   0.008  0.00  0.00    -0.068 C 
ATOM      3  H2  <0> d           0.002  -0.004   0.002  0.00  0.00     0.028 H 
ATOM      4  H3  <0> d           1.010   1.463   0.000  0.00  0.00     0.028 H 
ATOM      5  H4  <0> d          -0.540   1.447  -0.875  0.00  0.00     0.028 H 
ENDBRANCH   1   2
BRANCH   1   6
ATOM      6  C3  <0> d          -0.750   3.109   1.275  0.00  0.00    -0.068 C 
ATOM      7  H5  <0> d          -1.277   3.470   0.392  0.00  0.00     0.028 H 
ATOM      8  H6  <0> d          -1.260   3.461   2.172  0.00  0.00     0.028 H 
ATOM      9  H7  <0> d           0.273   3.486   1.268  0.00  0.00     0.028 H 
ENDBRANCH   1   6
BRANCH   1  10
ATOM     10  C4  <0> d          -2.164   1.050   1.278  0.00  0.00    -0.068 C 
ATOM     11  H8  <0> d          -2.149  -0.040   1.272  0.00  0.00     0.028 H 
ATOM     12  H9  <0> d          -2.674   1.401   2.175  0.00  0.00     0.028 H 
ATOM     13  H10 <0> d          -2.691   1.411   0.395  0.00  0.00     0.028 H 
ENDBRANCH   1  10
BRANCH   1  14
ATOM     14  C5  <0> d           0.011   1.072   2.506  0.00  0.00     0.042 A 
ATOM     15  H1  <0> d          -0.006  -0.017   2.542  0.00  0.00     0.077 H 
ATOM     16  N1  <0> d          -0.577   1.642   3.728  0.00  0.00    -0.329 N 
ATOM     17  C7  <0> d           0.354   2.371   4.359  0.00  0.00     0.361 A 
ATOM     18  H13 <0> d          -1.490   1.512   4.028  0.00  0.00     0.165 HD
ATOM     19  O1  <0> d           1.538   2.391   3.736  0.00  0.00    -0.302 OA
ATOM     20  O2  <0> d           0.143   2.959   5.401  0.00  0.00    -0.239 OA
ATOM     21  C6  <0> d           1.462   1.592   2.521  0.00  0.00     0.050 A 
ATOM     22  H11 <0> d           2.165   0.760   2.566  0.00  0.00     0.078 H 
ATOM     23  H12 <0> d           1.656   2.208   1.643  0.00  0.00     0.078 H 
ENDBRANCH   1  14
TORSDOF 4
