REMARK  0 active torsions:
REMARK  status: ('A' for Active; 'I' for Inactive)
ROOT
ATOM      1  C1  <0> d           2.433   0.196  -0.020  0.00  0.00     0.050 A 
ATOM      2  C2  <0> d           1.199  -0.635  -0.013  0.00  0.00     0.300 A 
ATOM      3  O1  <0> d           1.264  -1.848  -0.020  0.00  0.00    -0.263 OA
ATOM      4  N1  <0> d           0.002  -0.004   0.002  0.00  0.00    -0.101 NA
ATOM      5  N2  <0> d          -0.017   1.398   0.010  0.00  0.00    -0.087 NA
ATOM      6  C3  <0> d           1.132   2.096   0.003  0.00  0.00     0.364 A 
ATOM      7  O2  <0> d           1.084   3.311   0.009  0.00  0.00    -0.243 OA
ATOM      8  N3  <0> d           2.330   1.491  -0.012  0.00  0.00    -0.311 N 
ATOM      9  H1  <0> d           3.406  -0.273  -0.032  0.00  0.00     0.120 H 
ATOM     10  H2  <0> d           3.236   2.115  -0.018  0.00  0.00     0.170 HD
ENDROOT
TORSDOF 0
