REMARK  0 active torsions:
REMARK  status: ('A' for Active; 'I' for Inactive)
ROOT
ATOM      1  C1  <0> d          -0.017   1.377   0.010  0.00  0.00    -0.081 A 
ATOM      2  C2  <0> d           1.169   2.091   0.002  0.00  0.00    -0.081 A 
ATOM      3  C3  <0> d           2.381   1.429  -0.013  0.00  0.00    -0.055 A 
ATOM      4  C4  <0> d           2.410   0.043  -0.021  0.00  0.00     0.063 A 
ATOM      5  C5  <0> d           1.214  -0.678  -0.013  0.00  0.00     0.063 A 
ATOM      6  C6  <0> d           0.002  -0.004   0.002  0.00  0.00    -0.055 A 
ATOM      7  N1  <0> d           1.557  -2.028  -0.023  0.00  0.00    -0.307 N 
ATOM      8  H1  <0> d           0.934  -2.772  -0.021  0.00  0.00     0.170 HD
ATOM      9  C7  <0> d           2.900  -2.124  -0.036  0.00  0.00     0.325 A 
ATOM     10  O1  <0> d           3.528  -3.166  -0.047  0.00  0.00    -0.247 OA
ATOM     11  N2  <0> d           3.443  -0.892  -0.035  0.00  0.00    -0.307 N 
ATOM     12  H2  <0> d           4.391  -0.690  -0.043  0.00  0.00     0.170 HD
ATOM     13  H3  <0> d          -0.960   1.902   0.026  0.00  0.00     0.083 H 
ATOM     14  H4  <0> d           1.147   3.171   0.008  0.00  0.00     0.083 H 
ATOM     15  H5  <0> d           3.304   1.990  -0.019  0.00  0.00     0.087 H 
ATOM     16  H6  <0> d          -0.925  -0.558   0.008  0.00  0.00     0.087 H 
ENDROOT
TORSDOF 0
