REMARK  5 active torsions:
REMARK  status: ('A' for Active; 'I' for Inactive)
REMARK    1  A    between atoms: C1_1  and  C2_2 
REMARK    2  A    between atoms: C2_2  and  C3_3 
REMARK    3  A    between atoms: C3_3  and  C4_5 
REMARK    4  A    between atoms: C3_3  and  N1_6 
REMARK    5  A    between atoms: C7_9  and  C8_11 
ROOT
ATOM      1  C3  <0> d          -3.561   2.617   3.211  0.00  0.00     0.030 C 
ATOM      2  H1  <0> d          -4.347   2.114   2.647  0.00  0.00     0.075 H 
ENDROOT
BRANCH   1   3
ATOM      3  C2  <0> d          -3.746   4.132   3.102  0.00  0.00    -0.048 C 
ATOM      4  H5  <0> d          -3.015   4.633   3.736  0.00  0.00     0.035 H 
ATOM      5  H6  <0> d          -3.602   4.442   2.067  0.00  0.00     0.035 H 
BRANCH   3   6
ATOM      6  C1  <0> d          -5.158   4.507   3.556  0.00  0.00    -0.075 C 
ATOM      7  H2  <0> d          -5.889   4.006   2.922  0.00  0.00     0.027 H 
ATOM      8  H3  <0> d          -5.302   4.197   4.591  0.00  0.00     0.027 H 
ATOM      9  H4  <0> d          -5.290   5.587   3.478  0.00  0.00     0.027 H 
ENDBRANCH   3   6
ENDBRANCH   1   3
BRANCH   1  10
ATOM     10  C4  <0> d          -3.639   2.198   4.680  0.00  0.00    -0.055 C 
ATOM     11  H7  <0> d          -2.853   2.701   5.244  0.00  0.00     0.030 H 
ATOM     12  H8  <0> d          -4.612   2.475   5.086  0.00  0.00     0.030 H 
ATOM     13  H9  <0> d          -3.508   1.118   4.758  0.00  0.00     0.030 H 
ENDBRANCH   1  10
BRANCH   1  14
ATOM     14  N1  <0> d          -2.254   2.244   2.665  0.00  0.00    -0.276 N 
ATOM     15  N2  <0> d          -1.999   1.815   1.356  0.00  0.00    -0.178 NA
ATOM     16  C7  <0> d          -0.718   1.572   1.248  0.00  0.00     0.052 A 
ATOM     17  C6  <0> d          -0.116   1.847   2.480  0.00  0.00    -0.041 A 
ATOM     18  C5  <0> d          -1.082   2.258   3.333  0.00  0.00     0.001 A 
ATOM     19  H11 <0> d           0.935   1.748   2.709  0.00  0.00     0.088 H 
ATOM     20  H10 <0> d          -0.940   2.546   4.364  0.00  0.00     0.114 H 
BRANCH  16  21
ATOM     21  C8  <0> d          -0.013   1.086   0.008  0.00  0.00    -0.034 C 
ATOM     22  H12 <0> d           0.002  -0.004   0.002  0.00  0.00     0.035 H 
ATOM     23  H13 <0> d           1.010   1.463   0.000  0.00  0.00     0.035 H 
ATOM     24  H14 <0> d          -0.540   1.447  -0.875  0.00  0.00     0.035 H 
ENDBRANCH  16  21
ENDBRANCH   1  14
TORSDOF 5
