REMARK  5 active torsions:
REMARK  status: ('A' for Active; 'I' for Inactive)
REMARK    1  A    between atoms: C1_1  and  C2_2 
REMARK    2  A    between atoms: C2_2  and  C3_4 
REMARK    3  A    between atoms: C2_2  and  O1_8 
REMARK    4  A    between atoms: O1_8  and  C4_9 
REMARK    5  A    between atoms: C4_9  and  C5_11 
ROOT
ATOM      1  C2  <0> d          -0.729   1.579   1.267  0.00  0.00     0.138 C 
ATOM      2  H1  <0> d          -1.751   1.202   1.275  0.00  0.00     0.097 H 
ENDROOT
BRANCH   1   3
ATOM      3  C1  <0> d          -0.013   1.086   0.008  0.00  0.00    -0.043 C 
ATOM      4  H2  <0> d           0.002  -0.004   0.002  0.00  0.00     0.031 H 
ATOM      5  H3  <0> d           1.010   1.463   0.000  0.00  0.00     0.031 H 
ATOM      6  H4  <0> d          -0.540   1.447  -0.875  0.00  0.00     0.031 H 
ENDBRANCH   1   3
BRANCH   1   7
ATOM      7  C3  <0> d           0.011   1.072   2.506  0.00  0.00     0.413 C 
ATOM      8  F1  <0> d           1.324   1.557   2.496  0.00  0.00    -0.168 F 
ATOM      9  F2  <0> d          -0.644   1.524   3.657  0.00  0.00    -0.168 F 
ATOM     10  F3  <0> d           0.030  -0.327   2.499  0.00  0.00    -0.168 F 
ENDBRANCH   1   7
BRANCH   1  11
ATOM     11  O1  <0> d          -0.749   3.031   1.275  0.00  0.00    -0.308 OA
BRANCH  11  12
ATOM     12  C4  <0> d          -1.798   3.630   0.690  0.00  0.00     0.255 C 
ATOM     13  O2  <0> d          -2.671   2.962   0.188  0.00  0.00    -0.266 OA
BRANCH  12  14
ATOM     14  C5  <0> d          -1.887   5.134   0.659  0.00  0.00     0.004 C 
ATOM     15  H5  <0> d          -1.403   5.508  -0.243  0.00  0.00     0.041 H 
ATOM     16  H6  <0> d          -2.934   5.436   0.662  0.00  0.00     0.041 H 
ATOM     17  H7  <0> d          -1.388   5.545   1.537  0.00  0.00     0.041 H 
ENDBRANCH  12  14
ENDBRANCH  11  12
ENDBRANCH   1  11
TORSDOF 5
