REMARK  0 active torsions:
REMARK  status: ('A' for Active; 'I' for Inactive)
ROOT
ATOM      1  C1  <0> d          -1.198   1.628   0.017  0.00  0.00     0.004 A 
ATOM      2  C2  <0> d          -1.198   2.989   0.030  0.00  0.00     0.067 A 
ATOM      3  C3  <0> d           0.024   3.669   0.021  0.00  0.00     0.030 A 
ATOM      4  N1  <0> d           1.152   2.988   0.007  0.00  0.00    -0.205 NA
ATOM      5  C4  <0> d           1.146   1.653  -0.000  0.00  0.00     0.345 A 
ATOM      6  O1  <0> d           2.205   1.048  -0.013  0.00  0.00    -0.245 OA
ATOM      7  N2  <0> d          -0.011   0.966   0.007  0.00  0.00    -0.316 N 
ATOM      8  H1  <0> d           0.005  -0.134   0.006  0.00  0.00     0.170 HD
ATOM      9 Cl1  <0> d          -2.695   3.869   0.049  0.00  0.00    -0.081 Cl
ATOM     10  H2  <0> d          -2.129   1.081   0.018  0.00  0.00     0.114 H 
ATOM     11  H3  <0> d           0.043   4.749   0.027  0.00  0.00     0.117 H 
ENDROOT
TORSDOF 0
