REMARK  3 active torsions:
REMARK  status: ('A' for Active; 'I' for Inactive)
REMARK    1  A    between atoms: C1_1  and  C2_2 
REMARK    2  A    between atoms: C6_7  and  O2_10 
REMARK    3  A    between atoms: O2_10  and  C7_11 
ROOT
ATOM      1  C2  <0> d          -2.191   1.109   1.226  0.00  0.00     0.038 C 
ATOM      2  H1  <0> d          -2.220   0.019   1.237  0.00  0.00     0.082 H 
ATOM      3  C3  <0> d          -0.733   1.582   1.266  0.00  0.00    -0.041 C 
ATOM      4  C4  <0> d          -0.013   1.086   0.008  0.00  0.00    -0.059 C 
ATOM      5  C5  <0> d          -0.757   1.595  -1.230  0.00  0.00    -0.019 C 
ATOM      6  C6  <0> d          -2.212   1.122  -1.172  0.00  0.00     0.131 C 
ATOM      7  H2  <0> d          -2.757   1.517  -2.029  0.00  0.00     0.129 H 
ATOM      8  O1  <0> d          -2.816   1.591   0.035  0.00  0.00    -0.356 OA
ATOM      9  H6  <0> d          -0.241   1.178   2.150  0.00  0.00     0.036 H 
ATOM     10  H7  <0> d          -0.705   2.671   1.296  0.00  0.00     0.036 H 
ATOM     11  H8  <0> d           0.002  -0.004   0.002  0.00  0.00     0.033 H 
ATOM     12  H9  <0> d           1.009   1.464   0.000  0.00  0.00     0.033 H 
ATOM     13  H10 <0> d          -0.729   2.684  -1.250  0.00  0.00     0.040 H 
ATOM     14  H11 <0> d          -0.281   1.202  -2.128  0.00  0.00     0.040 H 
ENDROOT
BRANCH   6  15
ATOM     15  O2  <0> d          -2.250  -0.306  -1.200  0.00  0.00    -0.366 OA
BRANCH  15  16
ATOM     16  C7  <0> d          -3.560  -0.849  -1.377  0.00  0.00     0.007 C 
ATOM     17  H12 <0> d          -4.201  -0.526  -0.556  0.00  0.00     0.066 H 
ATOM     18  H13 <0> d          -3.974  -0.498  -2.321  0.00  0.00     0.066 H 
ATOM     19  H14 <0> d          -3.504  -1.938  -1.387  0.00  0.00     0.066 H 
ENDBRANCH  15  16
ENDBRANCH   6  15
BRANCH   1  20
ATOM     20  C1  <0> d          -2.935   1.651   2.449  0.00  0.00    -0.052 C 
ATOM     21  H3  <0> d          -3.972   1.315   2.421  0.00  0.00     0.030 H 
ATOM     22  H4  <0> d          -2.458   1.283   3.357  0.00  0.00     0.030 H 
ATOM     23  H5  <0> d          -2.906   2.740   2.438  0.00  0.00     0.030 H 
ENDBRANCH   1  20
TORSDOF 3
