REMARK  1 active torsions:
REMARK  status: ('A' for Active; 'I' for Inactive)
REMARK    1  A    between atoms: C3_3  and  N1_8 
ROOT
ATOM      1  C1  <0> d           1.174   1.783   0.000  0.00  0.00    -0.078 A 
ATOM      2  C2  <0> d          -0.013   1.076   0.008  0.00  0.00    -0.058 A 
ATOM      3  C3  <0> d          -1.225   1.754   0.017  0.00  0.00     0.028 A 
ATOM      4  C4  <0> d          -1.240   3.143   0.029  0.00  0.00    -0.021 A 
ATOM      5  C5  <0> d          -0.049   3.846   0.022  0.00  0.00     0.118 A 
ATOM      6  C6  <0> d           1.157   3.165   0.007  0.00  0.00    -0.046 A 
ATOM      7  F1  <0> d          -0.062   5.197   0.029  0.00  0.00    -0.206 F 
ATOM      8  H1  <0> d           2.116   1.255  -0.011  0.00  0.00     0.083 H 
ATOM      9  H2  <0> d           0.002  -0.004   0.002  0.00  0.00     0.086 H 
ATOM     10  H3  <0> d          -2.181   3.673   0.041  0.00  0.00     0.091 H 
ATOM     11  H4  <0> d           2.087   3.715   0.002  0.00  0.00     0.088 H 
ENDROOT
BRANCH   3  12
ATOM     12  N1  <0> d          -2.426   1.041   0.020  0.00  0.00    -0.399 N 
ATOM     13  H5  <0> d          -2.414   0.071   0.015  0.00  0.00     0.156 HD
ATOM     14  H6  <0> d          -3.272   1.516   0.026  0.00  0.00     0.156 HD
ENDBRANCH   3  12
TORSDOF 1
