REMARK  3 active torsions:
REMARK  status: ('A' for Active; 'I' for Inactive)
REMARK    1  A    between atoms: C4_4  and  C7_7 
REMARK    2  A    between atoms: C7_7  and  C8_8 
REMARK    3  A    between atoms: C8_8  and  C9_9 
ROOT
ATOM      1  C1  <0> d          -2.904   1.556   0.038  0.00  0.00    -0.065 C 
ATOM      2  C2  <0> d          -2.188   1.063  -1.221  0.00  0.00    -0.065 C 
ATOM      3  C3  <0> d          -0.753   1.593  -1.232  0.00  0.00    -0.062 C 
ATOM      4  C4  <0> d          -0.013   1.086   0.008  0.00  0.00    -0.054 C 
ATOM      5  C5  <0> d          -0.729   1.579   1.267  0.00  0.00    -0.062 C 
ATOM      6  C6  <0> d          -2.164   1.050   1.278  0.00  0.00    -0.065 C 
ATOM      7  H1  <0> d          -2.919   2.646   0.044  0.00  0.00     0.033 H 
ATOM      8  H2  <0> d          -3.927   1.179   0.046  0.00  0.00     0.033 H 
ATOM      9  H3  <0> d          -2.715   1.424  -2.104  0.00  0.00     0.033 H 
ATOM     10  H4  <0> d          -2.173  -0.027  -1.227  0.00  0.00     0.033 H 
ATOM     11  H5  <0> d          -0.767   2.683  -1.226  0.00  0.00     0.033 H 
ATOM     12  H6  <0> d          -0.242   1.241  -2.128  0.00  0.00     0.033 H 
ATOM     13  H7  <0> d           0.002  -0.004   0.002  0.00  0.00     0.040 H 
ATOM     14  H8  <0> d          -0.202   1.218   2.150  0.00  0.00     0.033 H 
ATOM     15  H9  <0> d          -0.744   2.669   1.273  0.00  0.00     0.033 H 
ATOM     16  H10 <0> d          -2.674   1.401   2.175  0.00  0.00     0.033 H 
ATOM     17  H11 <0> d          -2.149  -0.040   1.272  0.00  0.00     0.033 H 
ENDROOT
BRANCH   4  18
ATOM     18  C7  <0> d           1.423   1.615  -0.003  0.00  0.00    -0.053 C 
ATOM     19  H12 <0> d           1.905   1.339  -0.940  0.00  0.00     0.034 H 
ATOM     20  H13 <0> d           1.410   2.701   0.093  0.00  0.00     0.034 H 
BRANCH  18  21
ATOM     21  C8  <0> d           2.199   1.009   1.168  0.00  0.00     0.016 C 
ATOM     22  H14 <0> d           1.716   1.286   2.106  0.00  0.00     0.049 H 
ATOM     23  H15 <0> d           2.211  -0.076   1.073  0.00  0.00     0.049 H 
BRANCH  21  24
ATOM     24  C9  <0> d           3.613   1.531   1.157  0.00  0.00     0.172 C 
ATOM     25  O1  <0> d           3.963   2.308   0.301  0.00  0.00    -0.648 OA
ATOM     26  O2  <0> d           4.482   1.133   2.099  0.00  0.00    -0.648 OA
ENDBRANCH  21  24
ENDBRANCH  18  21
ENDBRANCH   4  18
TORSDOF 3
