REMARK  5 active torsions:
REMARK  status: ('A' for Active; 'I' for Inactive)
REMARK    1  A    between atoms: C1_1  and  C2_2 
REMARK    2  A    between atoms: C2_2  and  C3_3 
REMARK    3  A    between atoms: C3_3  and  C4_4 
REMARK    4  A    between atoms: C4_4  and  N1_5 
REMARK    5  A    between atoms: C7_8  and  N3_10 
ROOT
ATOM      1  C4  <0> d           1.472   4.362   0.011  0.00  0.00     0.016 C 
ATOM      2  H8  <0> d           2.527   4.070  -0.091  0.00  0.00     0.067 H 
ATOM      3  H9  <0> d           1.333   4.909   0.955  0.00  0.00     0.067 H 
ENDROOT
BRANCH   1   4
ATOM      4  C3  <0> d           1.076   5.261  -1.162  0.00  0.00    -0.049 C 
ATOM      5  H6  <0> d           0.020   5.554  -1.060  0.00  0.00     0.035 H 
ATOM      6  H7  <0> d           1.215   4.714  -2.106  0.00  0.00     0.035 H 
BRANCH   4   7
ATOM      7  C2  <0> d           1.954   6.514  -1.164  0.00  0.00    -0.067 C 
ATOM      8  H4  <0> d           3.010   6.221  -1.266  0.00  0.00     0.032 H 
ATOM      9  H5  <0> d           1.815   7.061  -0.220  0.00  0.00     0.032 H 
BRANCH   7  10
ATOM     10  C1  <0> d           1.558   7.413  -2.337  0.00  0.00    -0.076 C 
ATOM     11  H1  <0> d           2.190   8.313  -2.339  0.00  0.00     0.027 H 
ATOM     12  H2  <0> d           0.503   7.705  -2.235  0.00  0.00     0.027 H 
ATOM     13  H3  <0> d           1.697   6.866  -3.281  0.00  0.00     0.027 H 
ENDBRANCH   7  10
ENDBRANCH   4   7
ENDBRANCH   1   4
BRANCH   1  14
ATOM     14  N1  <0> d           0.631   3.163   0.013  0.00  0.00    -0.279 N 
ATOM     15  N2  <0> d          -0.770   3.140   0.026  0.00  0.00    -0.155 NA
ATOM     16  C7  <0> d          -1.159   1.887   0.017  0.00  0.00     0.142 A 
ATOM     17  C6  <0> d          -0.013   1.076   0.008  0.00  0.00    -0.021 A 
ATOM     18  C5  <0> d           1.070   1.887   0.002  0.00  0.00     0.002 A 
ATOM     19  H11 <0> d           0.002  -0.004   0.002  0.00  0.00     0.091 H 
ATOM     20  H10 <0> d           2.102   1.570  -0.010  0.00  0.00     0.114 H 
BRANCH  16  21
ATOM     21  N3  <0> d          -2.485   1.438   0.019  0.00  0.00    -0.383 N 
ATOM     22  H12 <0> d          -3.311   2.163   0.027  0.00  0.00     0.157 HD
ATOM     23  H13 <0> d          -2.699   0.359   0.014  0.00  0.00     0.157 HD
ENDBRANCH  16  21
ENDBRANCH   1  14
TORSDOF 5
