REMARK  7 active torsions:
REMARK  status: ('A' for Active; 'I' for Inactive)
REMARK    1  A    between atoms: C1_1  and  C2_2 
REMARK    2  A    between atoms: C2_2  and  C3_3 
REMARK    3  A    between atoms: C3_3  and  C4_4 
REMARK    4  A    between atoms: C4_4  and  C5_5 
REMARK    5  A    between atoms: C4_4  and  C6_6 
REMARK    6  A    between atoms: C4_4  and  O2_9 
REMARK    7  A    between atoms: C6_6  and  C7_7 
ROOT
ATOM      1  C4  <0> d           0.739  -2.027  -1.265  0.00  0.00     0.064 C 
ENDROOT
BRANCH   1   2
ATOM      2  C3  <0> d           0.718  -0.497  -1.257  0.00  0.00    -0.036 C 
ATOM      3  H6  <0> d           0.191  -0.136  -2.140  0.00  0.00     0.037 H 
ATOM      4  H7  <0> d           1.741  -0.120  -1.264  0.00  0.00     0.037 H 
BRANCH   2   5
ATOM      5  C2  <0> d           0.002  -0.004   0.002  0.00  0.00    -0.066 C 
ATOM      6  H4  <0> d           0.529  -0.365   0.885  0.00  0.00     0.032 H 
ATOM      7  H5  <0> d          -1.020  -0.381   0.010  0.00  0.00     0.032 H 
BRANCH   5   8
ATOM      8  C1  <0> d          -0.019   1.526   0.010  0.00  0.00    -0.076 C 
ATOM      9  H1  <0> d           1.004   1.903   0.003  0.00  0.00     0.027 H 
ATOM     10  H2  <0> d          -0.546   1.887  -0.873  0.00  0.00     0.027 H 
ATOM     11  H3  <0> d          -0.529   1.877   0.907  0.00  0.00     0.027 H 
ENDBRANCH   5   8
ENDBRANCH   2   5
ENDBRANCH   1   2
BRANCH   1  12
ATOM     12  C5  <0> d           1.368  -2.536   0.034  0.00  0.00    -0.047 C 
ATOM     13  H8  <0> d           0.782  -2.185   0.883  0.00  0.00     0.031 H 
ATOM     14  H9  <0> d           1.383  -3.626   0.028  0.00  0.00     0.031 H 
ATOM     15  H10 <0> d           2.387  -2.159   0.115  0.00  0.00     0.031 H 
ENDBRANCH   1  12
BRANCH   1  16
ATOM     16  C6  <0> d           1.562  -2.520  -2.457  0.00  0.00     0.044 C 
ATOM     17  H11 <0> d           1.114  -2.157  -3.383  0.00  0.00     0.053 H 
ATOM     18  H12 <0> d           2.581  -2.143  -2.376  0.00  0.00     0.053 H 
BRANCH  16  19
ATOM     19  C7  <0> d           1.582  -4.027  -2.466  0.00  0.00     0.175 C 
ATOM     20  O1  <0> d           0.999  -4.643  -1.606  0.00  0.00    -0.648 OA
ATOM     21  O3  <0> d           2.249  -4.683  -3.428  0.00  0.00    -0.648 OA
ENDBRANCH  16  19
ENDBRANCH   1  16
BRANCH   1  22
ATOM     22  O2  <0> d          -0.598  -2.521  -1.373  0.00  0.00    -0.390 OA
ATOM     23  H13 <0> d          -1.059  -2.238  -2.174  0.00  0.00     0.210 HD
ENDBRANCH   1  22
TORSDOF 7
