REMARK  3 active torsions:
REMARK  status: ('A' for Active; 'I' for Inactive)
REMARK    1  A    between atoms: C1_1  and  O1_2 
REMARK    2  A    between atoms: O1_2  and  C2_3 
REMARK    3  A    between atoms: C5_6  and  C8_9 
ROOT
ATOM      1  C8  <0> d          -0.013   1.086   0.008  0.00  0.00     0.038 C 
ATOM      2  C9  <0> d          -0.725   1.573  -1.185  0.00  0.00     0.063 C 
ATOM      3  N1  <0> d          -1.274   1.950  -2.105  0.00  0.00    -0.197 NA
ATOM      4  H8  <0> d           0.002  -0.004   0.002  0.00  0.00     0.062 H 
ATOM      5  H9  <0> d           1.010   1.463   0.000  0.00  0.00     0.062 H 
ENDROOT
BRANCH   1   6
ATOM      6  C5  <0> d          -0.718   1.572   1.248  0.00  0.00    -0.045 A 
ATOM      7  C4  <0> d          -1.720   0.807   1.817  0.00  0.00    -0.073 A 
ATOM      8  C3  <0> d          -2.368   1.250   2.954  0.00  0.00    -0.050 A 
ATOM      9  H5  <0> d          -1.995  -0.138   1.372  0.00  0.00     0.084 H 
ATOM     10  C2  <0> d          -2.013   2.464   3.524  0.00  0.00     0.068 A 
ATOM     11  H4  <0> d          -3.150   0.652   3.398  0.00  0.00     0.087 H 
ATOM     12  C7  <0> d          -1.008   3.230   2.951  0.00  0.00    -0.050 A 
ATOM     13  C6  <0> d          -0.359   2.779   1.818  0.00  0.00    -0.073 A 
ATOM     14  H7  <0> d          -0.730   4.175   3.393  0.00  0.00     0.087 H 
ATOM     15  H6  <0> d           0.427   3.373   1.374  0.00  0.00     0.084 H 
BRANCH  10  16
ATOM     16  O1  <0> d          -2.649   2.902   4.642  0.00  0.00    -0.356 OA
BRANCH  16  17
ATOM     17  C1  <0> d          -2.232   4.161   5.174  0.00  0.00     0.010 C 
ATOM     18  H1  <0> d          -2.383   4.940   4.427  0.00  0.00     0.066 H 
ATOM     19  H2  <0> d          -2.819   4.392   6.063  0.00  0.00     0.066 H 
ATOM     20  H3  <0> d          -1.176   4.112   5.439  0.00  0.00     0.066 H 
ENDBRANCH  16  17
ENDBRANCH  10  16
ENDBRANCH   1   6
TORSDOF 3
