REMARK  2 active torsions:
REMARK  status: ('A' for Active; 'I' for Inactive)
REMARK    1  A    between atoms: C1_1  and  C2_2 
REMARK    2  A    between atoms: C5_5  and  O1_9 
ROOT
ATOM      1  C2  <0> d          -0.718   1.572   1.248  0.00  0.00     0.032 A 
ATOM      2  C3  <0> d           0.010   1.803   2.400  0.00  0.00    -0.057 A 
ATOM      3  C4  <0> d          -0.645   2.250   3.536  0.00  0.00    -0.046 A 
ATOM      4  C5  <0> d          -2.020   2.450   3.472  0.00  0.00     0.106 A 
ATOM      5  C6  <0> d          -2.683   2.197   2.278  0.00  0.00     0.159 A 
ATOM      6  N1  <0> d          -2.021   1.776   1.217  0.00  0.00    -0.239 NA
ATOM      7 Cl1  <0> d          -4.399   2.441   2.179  0.00  0.00    -0.059 Cl
ATOM      8  H4  <0> d           1.077   1.637   2.414  0.00  0.00     0.086 H 
ATOM      9  H5  <0> d          -0.101   2.439   4.450  0.00  0.00     0.087 H 
ENDROOT
BRANCH   1  10
ATOM     10  C1  <0> d          -0.013   1.086   0.008  0.00  0.00    -0.035 C 
ATOM     11  H1  <0> d           0.002  -0.004   0.002  0.00  0.00     0.035 H 
ATOM     12  H2  <0> d           1.010   1.463   0.000  0.00  0.00     0.035 H 
ATOM     13  H3  <0> d          -0.540   1.447  -0.875  0.00  0.00     0.035 H 
ENDBRANCH   1  10
BRANCH   4  14
ATOM     14  O1  <0> d          -2.705   2.889   4.561  0.00  0.00    -0.357 OA
ATOM     15  H6  <0> d          -2.769   3.852   4.624  0.00  0.00     0.217 HD
ENDBRANCH   4  14
TORSDOF 2
