REMARK  2 active torsions:
REMARK  status: ('A' for Active; 'I' for Inactive)
REMARK    1  A    between atoms: C2_2  and  O4_14 
REMARK    2  A    between atoms: C5_9  and  O3_13 
ROOT
ATOM      1  C1  <0> d          -0.017   1.423   0.010  0.00  0.00     0.046 C 
ATOM      2  C2  <0> d           1.437   1.923  -0.001  0.00  0.00     0.083 C 
ATOM      3  H1  <0> d           1.572   2.720   0.730  0.00  0.00     0.090 H 
ATOM      4  C3  <0> d           2.263   0.682   0.393  0.00  0.00     0.092 C 
ATOM      5  H2  <0> d           3.235   0.651  -0.098  0.00  0.00     0.091 H 
ATOM      6  C4  <0> d           1.343  -0.501  -0.014  0.00  0.00     0.092 C 
ATOM      7  H3  <0> d           1.620  -0.929  -0.977  0.00  0.00     0.091 H 
ATOM      8  O1  <0> d           0.002  -0.004   0.002  0.00  0.00    -0.378 OA
ATOM      9  C5  <0> d           1.511  -1.508   1.147  0.00  0.00     0.083 C 
ATOM     10  H4  <0> d           0.553  -1.692   1.634  0.00  0.00     0.090 H 
ATOM     11  C6  <0> d           2.486  -0.808   2.119  0.00  0.00     0.046 C 
ATOM     12  O2  <0> d           2.362   0.609   1.829  0.00  0.00    -0.378 OA
ATOM     13  H5  <0> d          -0.522   1.779   0.908  0.00  0.00     0.078 H 
ATOM     14  H6  <0> d          -0.539   1.789  -0.875  0.00  0.00     0.078 H 
ATOM     15  H7  <0> d           2.204  -1.013   3.152  0.00  0.00     0.078 H 
ATOM     16  H8  <0> d           3.508  -1.136   1.932  0.00  0.00     0.078 H 
ENDROOT
BRANCH   2  17
ATOM     17  O4  <0> d           1.800   2.375  -1.307  0.00  0.00    -0.391 OA
ATOM     18  H10 <0> d           1.270   3.118  -1.628  0.00  0.00     0.210 HD
ENDBRANCH   2  17
BRANCH   9  19
ATOM     19  O3  <0> d           2.070  -2.733   0.669  0.00  0.00    -0.391 OA
ATOM     20  H9  <0> d           2.197  -3.402   1.356  0.00  0.00     0.210 HD
ENDBRANCH   9  19
TORSDOF 2
