REMARK  6 active torsions:
REMARK  status: ('A' for Active; 'I' for Inactive)
REMARK    1  A    between atoms: C1_1  and  C2_2 
REMARK    2  A    between atoms: C2_2  and  C3_3 
REMARK    3  A    between atoms: C3_3  and  C4_4 
REMARK    4  A    between atoms: C4_4  and  C5_6 
REMARK    5  A    between atoms: C4_4  and  C6_7 
REMARK    6  A    between atoms: C6_7  and  C7_8 
ROOT
ATOM      1  C4  <0> d           2.696   3.548  -0.005  0.00  0.00    -0.049 C 
ATOM      2  H1  <0> d           3.210   3.097  -0.854  0.00  0.00     0.040 H 
ENDROOT
BRANCH   1   3
ATOM      3  C3  <0> d           2.756   5.072  -0.123  0.00  0.00    -0.062 C 
ATOM      4  H7  <0> d           2.195   5.391  -1.001  0.00  0.00     0.033 H 
ATOM      5  H8  <0> d           2.321   5.523   0.769  0.00  0.00     0.033 H 
BRANCH   3   6
ATOM      6  C2  <0> d           4.214   5.516  -0.260  0.00  0.00    -0.068 C 
ATOM      7  H5  <0> d           4.774   5.198   0.619  0.00  0.00     0.032 H 
ATOM      8  H6  <0> d           4.649   5.066  -1.152  0.00  0.00     0.032 H 
BRANCH   6   9
ATOM      9  C1  <0> d           4.273   7.041  -0.378  0.00  0.00    -0.077 C 
ATOM     10  H2  <0> d           3.712   7.359  -1.256  0.00  0.00     0.027 H 
ATOM     11  H3  <0> d           3.838   7.492   0.514  0.00  0.00     0.027 H 
ATOM     12  H4  <0> d           5.312   7.357  -0.475  0.00  0.00     0.027 H 
ENDBRANCH   6   9
ENDBRANCH   3   6
ENDBRANCH   1   3
BRANCH   1  13
ATOM     13  C5  <0> d           3.376   3.110   1.294  0.00  0.00    -0.072 C 
ATOM     14  H9  <0> d           4.417   3.433   1.286  0.00  0.00     0.028 H 
ATOM     15  H10 <0> d           2.863   3.561   2.143  0.00  0.00     0.028 H 
ATOM     16  H11 <0> d           3.334   2.024   1.378  0.00  0.00     0.028 H 
ENDBRANCH   1  13
BRANCH   1  17
ATOM     17  C6  <0> d           1.235   3.094   0.007  0.00  0.00     0.019 C 
ATOM     18  H12 <0> d           0.727   3.482  -0.876  0.00  0.00     0.049 H 
ATOM     19  H13 <0> d           0.744   3.473   0.904  0.00  0.00     0.049 H 
BRANCH  17  20
ATOM     20  C7  <0> d           1.177   1.588  -0.001  0.00  0.00     0.172 C 
ATOM     21  O1  <0> d           2.199   0.944  -0.014  0.00  0.00    -0.648 OA
ATOM     22  O2  <0> d          -0.011   0.963   0.007  0.00  0.00    -0.648 OA
ENDBRANCH  17  20
ENDBRANCH   1  17
TORSDOF 6
