REMARK  1 active torsions:
REMARK  status: ('A' for Active; 'I' for Inactive)
REMARK    1  A    between atoms: C4_8  and  N4_9 
ROOT
ATOM      1  C1  <0> d           1.822  -1.753  -0.025  0.00  0.00     0.106 C 
ATOM      2  N1  <0> d           2.211  -2.820  -0.035  0.00  0.00    -0.191 NA
ATOM      3  C2  <0> d           1.332  -0.407  -0.013  0.00  0.00     0.130 A 
ATOM      4  C3  <0> d           2.135   0.823  -0.014  0.00  0.00     0.181 A 
ATOM      5  N2  <0> d           1.293   1.834  -0.000  0.00  0.00    -0.160 NA
ATOM      6  N3  <0> d          -0.016   1.345   0.009  0.00  0.00    -0.260 N 
ATOM      7  H1  <0> d          -0.841   1.910   0.020  0.00  0.00     0.191 HD
ATOM      8  C4  <0> d           0.002  -0.004   0.002  0.00  0.00     0.139 A 
ATOM      9  C5  <0> d           3.564   0.906  -0.027  0.00  0.00     0.123 C 
ATOM     10  N5  <0> d           4.698   0.973  -0.038  0.00  0.00    -0.190 NA
ENDROOT
BRANCH   8  11
ATOM     11  N4  <0> d          -1.102  -0.835   0.008  0.00  0.00    -0.383 N 
ATOM     12  H2  <0> d          -1.994  -0.455   0.018  0.00  0.00     0.157 HD
ATOM     13  H3  <0> d          -0.985  -1.798   0.001  0.00  0.00     0.157 HD
ENDBRANCH   8  11
TORSDOF 1
