REMARK  0 active torsions:
REMARK  status: ('A' for Active; 'I' for Inactive)
ROOT
ATOM      1  C1  <0> d          -0.016   1.308   0.009  0.00  0.00     0.068 A 
ATOM      2  N1  <0> d           1.211   1.817   0.000  0.00  0.00    -0.332 N 
ATOM      3  C2  <0> d           2.095   0.827  -0.013  0.00  0.00     0.179 A 
ATOM      4  N2  <0> d           3.394   0.475  -0.028  0.00  0.00    -0.220 N 
ATOM      5  H1  <0> d           4.153   1.080  -0.032  0.00  0.00     0.198 HD
ATOM      6  O1  <0> d           3.449  -0.941  -0.036  0.00  0.00    -0.128 OA
ATOM      7  N3  <0> d           2.120  -1.431  -0.026  0.00  0.00    -0.083 NA
ATOM      8  C3  <0> d           1.298  -0.416  -0.013  0.00  0.00     0.226 A 
ATOM      9  N4  <0> d           0.002  -0.004   0.002  0.00  0.00    -0.219 NA
ATOM     10  H2  <0> d          -0.918   1.902   0.025  0.00  0.00     0.143 H 
ATOM     11  H3  <0> d           1.426   2.762   0.003  0.00  0.00     0.168 HD
ENDROOT
TORSDOF 0
