REMARK  4 active torsions:
REMARK  status: ('A' for Active; 'I' for Inactive)
REMARK    1  A    between atoms: C1_1  and  O1_2 
REMARK    2  A    between atoms: O1_2  and  C2_3 
REMARK    3  A    between atoms: C2_3  and  C3_5 
REMARK    4  A    between atoms: C4_7  and  N4_11 
ROOT
ATOM      1  C3  <0> d           0.659  -2.076  -1.122  0.00  0.00     0.263 A 
ATOM      2  N1  <0> d           1.230  -2.787  -2.109  0.00  0.00    -0.036 NA
ATOM      3  C4  <0> d           1.101  -4.069  -1.861  0.00  0.00     0.716 A 
ATOM      4  N2  <0> d           0.434  -4.207  -0.692  0.00  0.00    -0.105 N 
ATOM      5  H1  <0> d           0.194  -5.039  -0.256  0.00  0.00     0.208 HD
ATOM      6  N3  <0> d           0.164  -2.908  -0.231  0.00  0.00    -0.133 NA
ENDROOT
BRANCH   1   7
ATOM      7  C2  <0> d           0.601  -0.602  -1.047  0.00  0.00     0.333 C 
ATOM      8  O2  <0> d           1.093   0.071  -1.930  0.00  0.00    -0.256 OA
BRANCH   7   9
ATOM      9  O1  <0> d           0.002  -0.004   0.002  0.00  0.00    -0.320 OA
BRANCH   9  10
ATOM     10  C1  <0> d          -0.017   1.425   0.010  0.00  0.00     0.013 C 
ATOM     11  H2  <0> d           1.005   1.802   0.002  0.00  0.00     0.067 H 
ATOM     12  H3  <0> d          -0.544   1.786  -0.873  0.00  0.00     0.067 H 
ATOM     13  H4  <0> d          -0.527   1.776   0.907  0.00  0.00     0.067 H 
ENDBRANCH   9  10
ENDBRANCH   7   9
ENDBRANCH   1   7
BRANCH   3  14
ATOM     14  N4  <0> d           1.566  -5.100  -2.658  0.00  0.00    -0.231 N 
ATOM     15  H5  <0> d           2.035  -4.902  -3.483  0.00  0.00     0.174 HD
ATOM     16  H6  <0> d           1.422  -6.021  -2.390  0.00  0.00     0.174 HD
ENDBRANCH   3  14
TORSDOF 4
