REMARK  9 active torsions:
REMARK  status: ('A' for Active; 'I' for Inactive)
REMARK    1  A    between atoms: C1_1  and  C2_2 
REMARK    2  A    between atoms: C2_2  and  C3_3 
REMARK    3  A    between atoms: C3_3  and  C4_4 
REMARK    4  A    between atoms: C4_4  and  C5_5 
REMARK    5  A    between atoms: C5_5  and  C6_6 
REMARK    6  A    between atoms: C6_6  and  C7_7 
REMARK    7  A    between atoms: C7_7  and  C8_9 
REMARK    8  A    between atoms: C7_7  and  O2_11 
REMARK    9  A    between atoms: C8_9  and  O1_10 
ROOT
ATOM      1  C5  <0> d           2.381   5.242   0.259  0.00  0.00    -0.063 C 
ATOM      2  H11 <0> d           1.871   5.637  -0.620  0.00  0.00     0.033 H 
ATOM      3  H12 <0> d           1.798   5.472   1.151  0.00  0.00     0.033 H 
ENDROOT
BRANCH   1   4
ATOM      4  C4  <0> d           3.766   5.882   0.375  0.00  0.00    -0.065 C 
ATOM      5  H9  <0> d           4.276   5.487   1.253  0.00  0.00     0.033 H 
ATOM      6  H10 <0> d           4.348   5.652  -0.518  0.00  0.00     0.033 H 
BRANCH   4   7
ATOM      7  C3  <0> d           3.617   7.399   0.509  0.00  0.00    -0.065 C 
ATOM      8  H7  <0> d           3.107   7.793  -0.369  0.00  0.00     0.033 H 
ATOM      9  H8  <0> d           3.034   7.629   1.402  0.00  0.00     0.033 H 
BRANCH   7  10
ATOM     10  C2  <0> d           5.002   8.039   0.625  0.00  0.00    -0.069 C 
ATOM     11  H5  <0> d           5.512   7.644   1.504  0.00  0.00     0.032 H 
ATOM     12  H6  <0> d           5.584   7.809  -0.267  0.00  0.00     0.032 H 
BRANCH  10  13
ATOM     13  C1  <0> d           4.853   9.556   0.760  0.00  0.00    -0.077 C 
ATOM     14  H2  <0> d           4.342   9.950  -0.118  0.00  0.00     0.027 H 
ATOM     15  H3  <0> d           4.270   9.786   1.653  0.00  0.00     0.027 H 
ATOM     16  H4  <0> d           5.839  10.012   0.843  0.00  0.00     0.027 H 
ENDBRANCH  10  13
ENDBRANCH   7  10
ENDBRANCH   4   7
ENDBRANCH   1   4
BRANCH   1  17
ATOM     17  C6  <0> d           2.530   3.725   0.124  0.00  0.00    -0.039 C 
ATOM     18  H13 <0> d           3.040   3.331   1.002  0.00  0.00     0.036 H 
ATOM     19  H14 <0> d           3.112   3.495  -0.769  0.00  0.00     0.036 H 
BRANCH  17  20
ATOM     20  C7  <0> d           1.145   3.085   0.008  0.00  0.00     0.056 C 
ATOM     21  H1  <0> d           0.532   3.388   0.857  0.00  0.00     0.086 H 
BRANCH  20  22
ATOM     22  C8  <0> d           1.286   1.562  -0.002  0.00  0.00     0.040 C 
ATOM     23  H15 <0> d           1.840   1.243   0.881  0.00  0.00     0.077 H 
ATOM     24  H16 <0> d           1.823   1.252  -0.899  0.00  0.00     0.077 H 
BRANCH  22  25
ATOM     25  O1  <0> d          -0.011   0.963   0.007  0.00  0.00    -0.398 OA
ATOM     26  H17 <0> d           0.002  -0.004   0.002  0.00  0.00     0.209 HD
ENDBRANCH  22  25
ENDBRANCH  20  22
BRANCH  20  27
ATOM     27  O2  <0> d           0.522   3.513  -1.205  0.00  0.00    -0.393 OA
ATOM     28  H18 <0> d           1.013   3.277  -2.004  0.00  0.00     0.210 HD
ENDBRANCH  20  27
ENDBRANCH  17  20
ENDBRANCH   1  17
TORSDOF 9
