REMARK  1 active torsions:
REMARK  status: ('A' for Active; 'I' for Inactive)
REMARK    1  A    between atoms: C1_1  and  C2_2 
ROOT
ATOM      1  C2  <0> d          -0.718   1.572   1.248  0.00  0.00    -0.061 A 
ATOM      2  C3  <0> d          -2.084   1.789   1.225  0.00  0.00    -0.075 A 
ATOM      3  C4  <0> d          -2.732   2.230   2.361  0.00  0.00    -0.049 A 
ATOM      4  C5  <0> d          -2.012   2.466   3.526  0.00  0.00     0.081 A 
ATOM      5  C6  <0> d          -0.642   2.252   3.543  0.00  0.00    -0.020 A 
ATOM      6  C7  <0> d           0.001   1.805   2.405  0.00  0.00    -0.068 A 
ATOM      7  C8  <0> d           0.148   2.506   4.799  0.00  0.00    -0.021 C 
ATOM      8  C9  <0> d          -0.774   2.595   5.982  0.00  0.00    -0.077 C 
ATOM      9  C10 <0> d          -2.063   2.781   5.843  0.00  0.00     0.016 C 
ATOM     10  O1  <0> d          -2.654   2.904   4.637  0.00  0.00    -0.323 OA
ATOM     11  H4  <0> d          -2.644   1.610   0.319  0.00  0.00     0.084 H 
ATOM     12  H5  <0> d          -3.799   2.396   2.344  0.00  0.00     0.087 H 
ATOM     13  H6  <0> d           1.068   1.638   2.419  0.00  0.00     0.085 H 
ATOM     14  H7  <0> d           0.855   1.691   4.953  0.00  0.00     0.046 H 
ATOM     15  H8  <0> d           0.697   3.443   4.697  0.00  0.00     0.046 H 
ATOM     16  H9  <0> d          -0.362   2.504   6.976  0.00  0.00     0.080 H 
ATOM     17  H10 <0> d          -2.677   2.838   6.729  0.00  0.00     0.122 H 
ENDROOT
BRANCH   1  18
ATOM     18  C1  <0> d          -0.013   1.086   0.008  0.00  0.00    -0.051 C 
ATOM     19  H1  <0> d           0.002  -0.004   0.002  0.00  0.00     0.033 H 
ATOM     20  H2  <0> d           1.010   1.463   0.000  0.00  0.00     0.033 H 
ATOM     21  H3  <0> d          -0.540   1.447  -0.875  0.00  0.00     0.033 H 
ENDBRANCH   1  18
TORSDOF 1
