REMARK  3 active torsions:
REMARK  status: ('A' for Active; 'I' for Inactive)
REMARK    1  A    between atoms: C1_1  and  C2_2 
REMARK    2  A    between atoms: C4_4  and  O2_10 
REMARK    3  A    between atoms: C7_7  and  O1_8 
ROOT
ATOM      1  C2  <0> d          -0.064   4.503   0.026  0.00  0.00    -0.026 A 
ATOM      2  C3  <0> d          -1.251   3.796   0.034  0.00  0.00    -0.041 A 
ATOM      3  C4  <0> d          -1.233   2.410   0.021  0.00  0.00     0.088 A 
ATOM      4  C5  <0> d          -0.021   1.732   0.012  0.00  0.00     0.069 A 
ATOM      5  C6  <0> d           1.166   2.439   0.004  0.00  0.00    -0.027 A 
ATOM      6  C7  <0> d           1.146   3.826   0.011  0.00  0.00     0.073 A 
ATOM      7 Cl1  <0> d           0.002  -0.004   0.002  0.00  0.00    -0.081 Cl
ATOM      8  H4  <0> d          -2.194   4.323   0.046  0.00  0.00     0.088 H 
ATOM      9  H5  <0> d           2.108   1.912  -0.007  0.00  0.00     0.090 H 
ENDROOT
BRANCH   1  10
ATOM     10  C1  <0> d          -0.085   6.010   0.034  0.00  0.00    -0.049 C 
ATOM     11  H1  <0> d          -0.099   6.378  -0.992  0.00  0.00     0.033 H 
ATOM     12  H2  <0> d          -0.975   6.358   0.558  0.00  0.00     0.033 H 
ATOM     13  H3  <0> d           0.805   6.383   0.541  0.00  0.00     0.033 H 
ENDBRANCH   1  10
BRANCH   6  14
ATOM     14  O1  <0> d           2.314   4.522   0.004  0.00  0.00    -0.360 OA
ATOM     15  H6  <0> d           2.644   4.728  -0.881  0.00  0.00     0.217 HD
ENDBRANCH   6  14
BRANCH   3  16
ATOM     16  O2  <0> d          -2.402   1.714   0.023  0.00  0.00    -0.359 OA
ATOM     17  H7  <0> d          -2.735   1.508   0.907  0.00  0.00     0.217 HD
ENDBRANCH   3  16
TORSDOF 3
