REMARK  3 active torsions:
REMARK  status: ('A' for Active; 'I' for Inactive)
REMARK    1  A    between atoms: C3_3  and  C8_9 
REMARK    2  A    between atoms: C6_6  and  C7_7 
REMARK    3  A    between atoms: C7_7  and  O1_8 
ROOT
ATOM      1  C1  <0> d          -0.357   2.780   1.817  0.00  0.00    -0.074 A 
ATOM      2  C2  <0> d          -1.002   3.234   2.949  0.00  0.00    -0.066 A 
ATOM      3  C3  <0> d          -2.014   2.465   3.527  0.00  0.00     0.040 A 
ATOM      4  C4  <0> d          -2.369   1.243   2.951  0.00  0.00    -0.066 A 
ATOM      5  C5  <0> d          -1.720   0.805   1.816  0.00  0.00    -0.074 A 
ATOM      6  C6  <0> d          -0.718   1.572   1.248  0.00  0.00    -0.035 A 
ATOM      7  H1  <0> d           0.429   3.372   1.371  0.00  0.00     0.084 H 
ATOM      8  H2  <0> d          -0.722   4.179   3.389  0.00  0.00     0.085 H 
ATOM      9  H3  <0> d          -3.151   0.644   3.393  0.00  0.00     0.085 H 
ATOM     10  H4  <0> d          -1.994  -0.140   1.369  0.00  0.00     0.084 H 
ENDROOT
BRANCH   6  11
ATOM     11  C7  <0> d          -0.013   1.086   0.008  0.00  0.00     0.040 C 
ATOM     12  H5  <0> d           0.002  -0.004   0.002  0.00  0.00     0.081 H 
ATOM     13  H6  <0> d           1.010   1.463   0.000  0.00  0.00     0.081 H 
BRANCH  11  14
ATOM     14  O1  <0> d          -0.704   1.559  -1.150  0.00  0.00    -0.396 OA
ATOM     15  H7  <0> d          -0.304   1.284  -1.986  0.00  0.00     0.209 HD
ENDBRANCH  11  14
ENDBRANCH   6  11
BRANCH   3  16
ATOM     16  C8  <0> d          -2.705   2.941   4.742  0.00  0.00     0.209 C 
ATOM     17  O2  <0> d          -3.585   2.270   5.243  0.00  0.00    -0.644 OA
ATOM     18  O3  <0> d          -2.360   4.120   5.296  0.00  0.00    -0.644 OA
ENDBRANCH   3  16
TORSDOF 3
