REMARK  0 active torsions:
REMARK  status: ('A' for Active; 'I' for Inactive)
ROOT
ATOM      1  C1  <0> d           1.842   1.830  -1.224  0.00  0.00     0.025 A 
ATOM      2  C2  <0> d           1.219   1.531  -0.001  0.00  0.00     0.206 A 
ATOM      3  N1  <0> d           1.824   1.805   1.139  0.00  0.00    -0.201 NA
ATOM      4  C3  <0> d           3.043   2.362   1.152  0.00  0.00     0.177 A 
ATOM      5  C4  <0> d           3.901   2.749   2.167  0.00  0.00     0.071 A 
ATOM      6  N2  <0> d           4.996   3.260   1.618  0.00  0.00    -0.140 NA
ATOM      7  N3  <0> d           4.913   3.234   0.334  0.00  0.00    -0.057 NA
ATOM      8  N4  <0> d           3.683   2.669  -0.023  0.00  0.00    -0.170 N 
ATOM      9  C5  <0> d           3.079   2.401  -1.222  0.00  0.00     0.209 A 
ATOM     10  O1  <0> d           3.700   2.699  -2.386  0.00  0.00    -0.170 OA
ATOM     11  O2  <0> d          -0.011   0.963   0.007  0.00  0.00    -0.170 OA
ATOM     12  H1  <0> d           1.345   1.610  -2.157  0.00  0.00     0.097 H 
ATOM     13  H2  <0> d           3.711   2.651   3.225  0.00  0.00     0.123 H 
ENDROOT
TORSDOF 0
