REMARK  4 active torsions:
REMARK  status: ('A' for Active; 'I' for Inactive)
REMARK    1  A    between atoms: C1_1  and  C2_2 
REMARK    2  A    between atoms: C2_2  and  S1_3 
REMARK    3  A    between atoms: S1_3  and  C3_4 
REMARK    4  A    between atoms: C6_7  and  N1_10 
ROOT
ATOM      1  C3  <0> d           1.177   2.087   0.002  0.00  0.00     0.000 A 
ATOM      2  C4  <0> d          -0.017   1.377   0.010  0.00  0.00    -0.065 A 
ATOM      3  C5  <0> d           0.002  -0.004   0.002  0.00  0.00    -0.056 A 
ATOM      4  C6  <0> d           1.214  -0.682  -0.013  0.00  0.00     0.025 A 
ATOM      5  C7  <0> d           2.407   0.028  -0.020  0.00  0.00    -0.056 A 
ATOM      6  C8  <0> d           2.389   1.409  -0.013  0.00  0.00    -0.065 A 
ATOM      7  H6  <0> d          -0.959   1.904   0.017  0.00  0.00     0.085 H 
ATOM      8  H7  <0> d          -0.926  -0.557   0.008  0.00  0.00     0.086 H 
ATOM      9  H8  <0> d           3.349  -0.499  -0.031  0.00  0.00     0.086 H 
ATOM     10  H9  <0> d           3.317   1.961  -0.019  0.00  0.00     0.085 H 
ENDROOT
BRANCH   1  11
ATOM     11  S1  <0> d           1.153   3.849   0.011  0.00  0.00    -0.130 SA
BRANCH  11  12
ATOM     12  C2  <0> d           2.907   4.311  -0.003  0.00  0.00    -0.022 C 
ATOM     13  H4  <0> d           3.398   3.903   0.880  0.00  0.00     0.048 H 
ATOM     14  H5  <0> d           3.381   3.912  -0.899  0.00  0.00     0.048 H 
BRANCH  12  15
ATOM     15  C1  <0> d           3.033   5.836   0.004  0.00  0.00    -0.068 C 
ATOM     16  H1  <0> d           4.087   6.114  -0.005  0.00  0.00     0.028 H 
ATOM     17  H2  <0> d           2.542   6.245  -0.880  0.00  0.00     0.028 H 
ATOM     18  H3  <0> d           2.559   6.236   0.900  0.00  0.00     0.028 H 
ENDBRANCH  12  15
ENDBRANCH  11  12
ENDBRANCH   1  11
BRANCH   4  19
ATOM     19  N1  <0> d           1.233  -2.082  -0.021  0.00  0.00    -0.399 N 
ATOM     20  H10 <0> d           0.399  -2.578  -0.016  0.00  0.00     0.156 HD
ATOM     21  H11 <0> d           2.079  -2.556  -0.032  0.00  0.00     0.156 HD
ENDBRANCH   4  19
TORSDOF 4
