REMARK  3 active torsions:
REMARK  status: ('A' for Active; 'I' for Inactive)
REMARK    1  A    between atoms: C1_1  and  C2_2 
REMARK    2  A    between atoms: C4_4  and  C6_7 
REMARK    3  A    between atoms: C6_7  and  O1_8 
ROOT
ATOM      1  C2  <0> d          -1.027   3.188   2.938  0.00  0.00    -0.021 A 
ATOM      2  C3  <0> d          -0.368   2.777   1.827  0.00  0.00    -0.062 A 
ATOM      3  C4  <0> d          -0.718   1.572   1.248  0.00  0.00    -0.027 A 
ATOM      4  C5  <0> d          -1.701   0.831   1.815  0.00  0.00    -0.036 A 
ATOM      5  S1  <0> d          -2.172   1.845   3.207  0.00  0.00    -0.106 SA
ATOM      6  H4  <0> d           0.414   3.385   1.397  0.00  0.00     0.086 H 
ATOM      7  H5  <0> d          -2.097  -0.125   1.506  0.00  0.00     0.095 H 
ENDROOT
BRANCH   3   8
ATOM      8  C6  <0> d          -0.013   1.086   0.008  0.00  0.00     0.041 C 
ATOM      9  H6  <0> d           0.002  -0.004   0.002  0.00  0.00     0.081 H 
ATOM     10  H7  <0> d           1.010   1.463   0.000  0.00  0.00     0.081 H 
BRANCH   8  11
ATOM     11  O1  <0> d          -0.704   1.559  -1.150  0.00  0.00    -0.396 OA
ATOM     12  H8  <0> d          -0.304   1.284  -1.986  0.00  0.00     0.209 HD
ENDBRANCH   8  11
ENDBRANCH   3   8
BRANCH   1  13
ATOM     13  C1  <0> d          -0.836   4.448   3.743  0.00  0.00    -0.045 C 
ATOM     14  H1  <0> d          -1.534   4.453   4.580  0.00  0.00     0.034 H 
ATOM     15  H2  <0> d           0.186   4.487   4.121  0.00  0.00     0.034 H 
ATOM     16  H3  <0> d          -1.022   5.315   3.109  0.00  0.00     0.034 H 
ENDBRANCH   1  13
TORSDOF 3
