REMARK  9 active torsions:
REMARK  status: ('A' for Active; 'I' for Inactive)
REMARK    1  A    between atoms: C1_1  and  C2_2 
REMARK    2  A    between atoms: C2_2  and  C3_4 
REMARK    3  A    between atoms: C2_2  and  O2_13 
REMARK    4  A    between atoms: C3_4  and  C4_5 
REMARK    5  A    between atoms: C4_5  and  C5_7 
REMARK    6  A    between atoms: C4_5  and  O1_12 
REMARK    7  A    between atoms: C5_7  and  C6_8 
REMARK    8  A    between atoms: C6_8  and  C7_9 
REMARK    9  A    between atoms: C7_9  and  C8_10 
ROOT
ATOM      1  C4  <0> d          -0.013   1.086   0.008  0.00  0.00     0.038 C 
ATOM      2  H2  <0> d           0.002  -0.004   0.002  0.00  0.00     0.083 H 
ENDROOT
BRANCH   1   3
ATOM      3  C3  <0> d          -0.753   1.593  -1.232  0.00  0.00    -0.018 C 
ATOM      4  H6  <0> d          -0.845   2.678  -1.181  0.00  0.00     0.040 H 
ATOM      5  H7  <0> d          -0.194   1.317  -2.126  0.00  0.00     0.040 H 
BRANCH   3   6
ATOM      6  C2  <0> d          -2.147   0.964  -1.286  0.00  0.00     0.034 C 
ATOM      7  H1  <0> d          -2.057  -0.122  -1.247  0.00  0.00     0.082 H 
BRANCH   6   8
ATOM      8  C1  <0> d          -2.840   1.372  -2.588  0.00  0.00    -0.052 C 
ATOM      9  H3  <0> d          -2.251   1.025  -3.437  0.00  0.00     0.030 H 
ATOM     10  H4  <0> d          -3.832   0.924  -2.627  0.00  0.00     0.030 H 
ATOM     11  H5  <0> d          -2.929   2.458  -2.627  0.00  0.00     0.030 H 
ENDBRANCH   6   8
BRANCH   6  12
ATOM     12  O2  <0> d          -2.918   1.419  -0.173  0.00  0.00    -0.396 OA
ATOM     13  H18 <0> d          -3.039   2.378  -0.143  0.00  0.00     0.210 HD
ENDBRANCH   6  12
ENDBRANCH   3   6
ENDBRANCH   1   3
BRANCH   1  14
ATOM     14  C5  <0> d           1.423   1.615  -0.003  0.00  0.00    -0.041 C 
ATOM     15  H8  <0> d           1.905   1.339  -0.940  0.00  0.00     0.036 H 
ATOM     16  H9  <0> d           1.410   2.701   0.093  0.00  0.00     0.036 H 
BRANCH  14  17
ATOM     17  C6  <0> d           2.199   1.009   1.168  0.00  0.00    -0.060 C 
ATOM     18  H10 <0> d           1.716   1.286   2.106  0.00  0.00     0.033 H 
ATOM     19  H11 <0> d           2.211  -0.076   1.073  0.00  0.00     0.033 H 
BRANCH  17  20
ATOM     20  C7  <0> d           3.634   1.539   1.157  0.00  0.00    -0.050 C 
ATOM     21  H12 <0> d           4.116   1.262   0.220  0.00  0.00     0.038 H 
ATOM     22  H13 <0> d           3.622   2.625   1.253  0.00  0.00     0.038 H 
BRANCH  20  23
ATOM     23  C8  <0> d           4.399   0.942   2.311  0.00  0.00    -0.112 C 
ATOM     24  C9  <0> d           5.520   0.301   2.092  0.00  0.00    -0.125 C 
ATOM     25  H15 <0> d           5.897   0.201   1.085  0.00  0.00     0.066 H 
ATOM     26  H16 <0> d           6.068  -0.127   2.918  0.00  0.00     0.066 H 
ATOM     27  H14 <0> d           4.022   1.042   3.318  0.00  0.00     0.075 H 
ENDBRANCH  20  23
ENDBRANCH  17  20
ENDBRANCH  14  17
ENDBRANCH   1  14
BRANCH   1  28
ATOM     28  O1  <0> d          -0.682   1.547   1.184  0.00  0.00    -0.395 OA
ATOM     29  H17 <0> d          -0.732   2.510   1.256  0.00  0.00     0.210 HD
ENDBRANCH   1  28
TORSDOF 9
