REMARK  3 active torsions:
REMARK  status: ('A' for Active; 'I' for Inactive)
REMARK    1  A    between atoms: C1_1  and  O1_2 
REMARK    2  A    between atoms: O1_2  and  C2_3 
REMARK    3  A    between atoms: C2_3  and  C3_5 
ROOT
ATOM      1  C3  <0> d          -1.244  -2.135   0.003  0.00  0.00     0.051 C 
ATOM      2  H1  <0> d          -0.753  -2.515  -0.894  0.00  0.00     0.058 H 
ATOM      3  C4  <0> d          -2.706  -2.591   0.017  0.00  0.00    -0.049 C 
ATOM      4  C5  <0> d          -2.752  -4.120   0.088  0.00  0.00    -0.044 C 
ATOM      5  C6  <0> d          -1.985  -4.590   1.327  0.00  0.00     0.019 C 
ATOM      6  O3  <0> d          -0.642  -4.106   1.265  0.00  0.00    -0.390 OA
ATOM      7  C7  <0> d          -0.534  -2.681   1.244  0.00  0.00     0.031 C 
ATOM      8  H5  <0> d          -3.211  -2.170   0.887  0.00  0.00     0.034 H 
ATOM      9  H6  <0> d          -3.203  -2.253  -0.892  0.00  0.00     0.034 H 
ATOM     10  H7  <0> d          -3.789  -4.451   0.155  0.00  0.00     0.036 H 
ATOM     11  H8  <0> d          -2.292  -4.541  -0.806  0.00  0.00     0.036 H 
ATOM     12  H9  <0> d          -2.470  -4.202   2.223  0.00  0.00     0.074 H 
ATOM     13  H10 <0> d          -1.978  -5.679   1.359  0.00  0.00     0.074 H 
ATOM     14  H11 <0> d           0.518  -2.396   1.216  0.00  0.00     0.075 H 
ATOM     15  H12 <0> d          -0.999  -2.269   2.139  0.00  0.00     0.075 H 
ENDROOT
BRANCH   1  16
ATOM     16  C2  <0> d          -1.185  -0.630   0.010  0.00  0.00     0.264 C 
ATOM     17  O2  <0> d          -2.208   0.015   0.023  0.00  0.00    -0.265 OA
BRANCH  16  18
ATOM     18  O1  <0> d           0.002  -0.004   0.002  0.00  0.00    -0.326 OA
BRANCH  18  19
ATOM     19  C1  <0> d          -0.017   1.425   0.010  0.00  0.00     0.013 C 
ATOM     20  H2  <0> d           1.005   1.802   0.002  0.00  0.00     0.067 H 
ATOM     21  H3  <0> d          -0.544   1.786  -0.873  0.00  0.00     0.067 H 
ATOM     22  H4  <0> d          -0.527   1.776   0.907  0.00  0.00     0.067 H 
ENDBRANCH  18  19
ENDBRANCH  16  18
ENDBRANCH   1  16
TORSDOF 3
