REMARK  5 active torsions:
REMARK  status: ('A' for Active; 'I' for Inactive)
REMARK    1  A    between atoms: C1_1  and  C2_2 
REMARK    2  A    between atoms: C2_2  and  C3_3 
REMARK       I    between atoms: C3_3  and  N1_5 
REMARK    3  A    between atoms: N1_5  and  C4_6 
REMARK    4  A    between atoms: N1_5  and  C5_7 
REMARK    5  A    between atoms: C5_7  and  C6_8 
ROOT
ATOM      1  C3  <0> d          -0.014   1.209   0.009  0.00  0.00     0.219 C 
ATOM      2  O1  <0> d           0.002  -0.004   0.002  0.00  0.00    -0.273 OA
ATOM      3  N1  <0> d           1.143   1.898   0.001  0.00  0.00    -0.347 N 
ENDROOT
BRANCH   3   4
ATOM      4  C4  <0> d           1.124   3.363   0.009  0.00  0.00    -0.015 C 
ATOM      5  H6  <0> d           2.156   3.744   0.002  0.00  0.00     0.056 H 
ATOM      6  H7  <0> d           0.609   3.718   0.914  0.00  0.00     0.056 H 
ATOM      7  H8  <0> d           0.592   3.728  -0.882  0.00  0.00     0.056 H 
ENDBRANCH   3   4
BRANCH   3   8
ATOM      8  C5  <0> d           2.422   1.183  -0.015  0.00  0.00     0.077 C 
ATOM      9  H9  <0> d           3.185   1.785   0.500  0.00  0.00     0.081 H 
ATOM     10  H10 <0> d           2.308   0.218   0.500  0.00  0.00     0.081 H 
BRANCH   8  11
ATOM     11  C6  <0> d           2.847   0.946  -1.441  0.00  0.00     0.191 C 
ATOM     12  O2  <0> d           2.153   1.334  -2.351  0.00  0.00    -0.647 OA
ATOM     13  O3  <0> d           3.996   0.303  -1.701  0.00  0.00    -0.647 OA
ENDBRANCH   8  11
ENDBRANCH   3   8
BRANCH   1  14
ATOM     14  C2  <0> d          -1.330   1.944   0.019  0.00  0.00     0.006 C 
ATOM     15  H4  <0> d          -1.401   2.581  -0.875  0.00  0.00     0.046 H 
ATOM     16  H5  <0> d          -1.392   2.571   0.921  0.00  0.00     0.046 H 
BRANCH  14  17
ATOM     17  C1  <0> d          -2.479   0.934   0.019  0.00  0.00    -0.068 C 
ATOM     18  H1  <0> d          -3.439   1.471   0.026  0.00  0.00     0.028 H 
ATOM     19  H2  <0> d          -2.408   0.298   0.913  0.00  0.00     0.028 H 
ATOM     20  H3  <0> d          -2.416   0.308  -0.883  0.00  0.00     0.028 H 
ENDBRANCH  14  17
ENDBRANCH   1  14
TORSDOF 5
