REMARK  2 active torsions:
REMARK  status: ('A' for Active; 'I' for Inactive)
REMARK    1  A    between atoms: C2_2  and  C5_8 
REMARK    2  A    between atoms: C3_3  and  N3_7 
ROOT
ATOM      1  C1  <0> d           1.176  -2.104  -0.106  0.00  0.00     0.024 A 
ATOM      2  C2  <0> d           1.220  -0.706  -0.119  0.00  0.00     0.103 A 
ATOM      3  C3  <0> d           0.001  -0.004  -0.013  0.00  0.00     0.141 A 
ATOM      4  N1  <0> d          -1.128  -0.698   0.100  0.00  0.00    -0.224 NA
ATOM      5  C4  <0> d          -1.114  -2.014   0.102  0.00  0.00     0.088 A 
ATOM      6  N2  <0> d           0.005  -2.707   0.005  0.00  0.00    -0.253 NA
ATOM      7  H1  <0> d           2.085  -2.681  -0.185  0.00  0.00     0.116 H 
ATOM      8  H2  <0> d          -2.050  -2.546   0.191  0.00  0.00     0.146 H 
ENDROOT
BRANCH   2   9
ATOM      9  C5  <0> d           2.501   0.012  -0.240  0.00  0.00     0.214 C 
ATOM     10  O1  <0> d           2.530   1.223  -0.146  0.00  0.00    -0.644 OA
ATOM     11  O2  <0> d           3.640  -0.675  -0.455  0.00  0.00    -0.644 OA
ENDBRANCH   2   9
BRANCH   3  12
ATOM     12  N3  <0> d          -0.019   1.374  -0.021  0.00  0.00    -0.383 N 
ATOM     13  H3  <0> d           0.813   1.871  -0.020  0.00  0.00     0.157 HD
ATOM     14  H4  <0> d          -0.867   1.847  -0.031  0.00  0.00     0.157 HD
ENDBRANCH   3  12
TORSDOF 2
