REMARK  2 active torsions:
REMARK  status: ('A' for Active; 'I' for Inactive)
REMARK    1  A    between atoms: C4_5  and  N3_8 
REMARK    2  A    between atoms: C5_6  and  N2_7 
ROOT
ATOM      1  C1  <0> d          -0.013   1.076   0.008  0.00  0.00    -0.051 A 
ATOM      2  C2  <0> d          -1.215   1.770   0.017  0.00  0.00    -0.042 A 
ATOM      3  C3  <0> d          -1.200   3.151   0.030  0.00  0.00     0.128 A 
ATOM      4  N1  <0> d          -0.059   3.818   0.023  0.00  0.00    -0.217 NA
ATOM      5  C4  <0> d           1.108   3.198   0.008  0.00  0.00     0.149 A 
ATOM      6  C5  <0> d           1.171   1.802   0.001  0.00  0.00     0.071 A 
ATOM      7 Cl1  <0> d          -2.701   4.023   0.049  0.00  0.00    -0.062 Cl
ATOM      8  H1  <0> d           0.002  -0.004   0.002  0.00  0.00     0.087 H 
ATOM      9  H2  <0> d          -2.153   1.235   0.019  0.00  0.00     0.088 H 
ENDROOT
BRANCH   5  10
ATOM     10  N3  <0> d           2.286   3.942   0.001  0.00  0.00    -0.382 N 
ATOM     11  H5  <0> d           3.260   3.430  -0.011  0.00  0.00     0.157 HD
ATOM     12  H6  <0> d           2.242   5.041   0.007  0.00  0.00     0.157 HD
ENDBRANCH   5  10
BRANCH   6  13
ATOM     13  N2  <0> d           2.408   1.146  -0.014  0.00  0.00    -0.396 N 
ATOM     14  H3  <0> d           3.340   1.729  -0.020  0.00  0.00     0.156 HD
ATOM     15  H4  <0> d           2.447   0.046  -0.019  0.00  0.00     0.156 HD
ENDBRANCH   6  13
TORSDOF 2
