REMARK  3 active torsions:
REMARK  status: ('A' for Active; 'I' for Inactive)
REMARK    1  A    between atoms: C1_1  and  C2_2 
REMARK    2  A    between atoms: C8_10  and  C9_11 
REMARK    3  A    between atoms: C8_10  and  C10_12 
ROOT
ATOM      1  C2  <0> d           0.241   2.152  -0.024  0.00  0.00    -0.087 C 
ATOM      2  C3  <0> d          -0.063   0.879   0.014  0.00  0.00    -0.101 C 
ATOM      3  C4  <0> d           1.024  -0.168   0.028  0.00  0.00    -0.045 C 
ATOM      4  C5  <0> d           2.084   0.216  -1.017  0.00  0.00    -0.040 A 
ATOM      5  H1  <0> d           2.050  -0.335  -1.957  0.00  0.00     0.042 H 
ATOM      6  C6  <0> d           2.442   1.713  -1.062  0.00  0.00    -0.039 A 
ATOM      7  H2  <0> d           2.648   2.166  -2.031  0.00  0.00     0.042 H 
ATOM      8  C7  <0> d           1.685   2.592  -0.054  0.00  0.00    -0.041 C 
ATOM      9  C8  <0> d           3.437   0.700  -0.491  0.00  0.00    -0.039 A 
ATOM     10  H6  <0> d          -1.099   0.576   0.036  0.00  0.00     0.077 H 
ATOM     11  H7  <0> d           1.482  -0.207   1.016  0.00  0.00     0.039 H 
ATOM     12  H8  <0> d           0.600  -1.140  -0.222  0.00  0.00     0.039 H 
ATOM     13  H9  <0> d           1.742   3.636  -0.363  0.00  0.00     0.040 H 
ATOM     14  H10 <0> d           2.124   2.476   0.937  0.00  0.00     0.040 H 
ENDROOT
BRANCH   9  15
ATOM     15  C9  <0> d           3.648   0.695   1.024  0.00  0.00    -0.069 C 
ATOM     16  H11 <0> d           3.704  -0.334   1.380  0.00  0.00     0.028 H 
ATOM     17  H12 <0> d           4.576   1.213   1.264  0.00  0.00     0.028 H 
ATOM     18  H13 <0> d           2.813   1.202   1.509  0.00  0.00     0.028 H 
ENDBRANCH   9  15
BRANCH   9  19
ATOM     19  C10 <0> d           4.676   0.379  -1.330  0.00  0.00    -0.069 C 
ATOM     20  H14 <0> d           4.367  -0.038  -2.289  0.00  0.00     0.028 H 
ATOM     21  H15 <0> d           5.248   1.292  -1.498  0.00  0.00     0.028 H 
ATOM     22  H16 <0> d           5.295  -0.345  -0.801  0.00  0.00     0.028 H 
ENDBRANCH   9  19
BRANCH   1  23
ATOM     23  C1  <0> d          -0.857   3.184  -0.043  0.00  0.00    -0.055 C 
ATOM     24  H3  <0> d          -1.825   2.684  -0.021  0.00  0.00     0.033 H 
ATOM     25  H4  <0> d          -0.762   3.832   0.829  0.00  0.00     0.033 H 
ATOM     26  H5  <0> d          -0.777   3.783  -0.950  0.00  0.00     0.033 H 
ENDBRANCH   1  23
TORSDOF 3
