REMARK  5 active torsions:
REMARK  status: ('A' for Active; 'I' for Inactive)
REMARK    1  A    between atoms: C1_1  and  O1_2 
REMARK    2  A    between atoms: O1_2  and  C2_3 
REMARK    3  A    between atoms: C2_3  and  C3_5 
REMARK    4  A    between atoms: C3_5  and  S1_6 
REMARK    5  A    between atoms: S1_6  and  N1_9 
ROOT
ATOM      1  C3  <0> d          -1.244  -2.135   0.003  0.00  0.00     0.125 C 
ATOM      2  H4  <0> d          -0.753  -2.514  -0.894  0.00  0.00     0.074 H 
ATOM      3  H5  <0> d          -0.736  -2.523   0.886  0.00  0.00     0.074 H 
ENDROOT
BRANCH   1   4
ATOM      4  C2  <0> d          -1.185  -0.630   0.010  0.00  0.00     0.274 C 
ATOM      5  O2  <0> d          -2.208   0.015   0.023  0.00  0.00    -0.264 OA
BRANCH   4   6
ATOM      6  O1  <0> d           0.002  -0.004   0.002  0.00  0.00    -0.326 OA
BRANCH   6   7
ATOM      7  C1  <0> d          -0.017   1.425   0.010  0.00  0.00     0.013 C 
ATOM      8  H1  <0> d           1.005   1.802   0.002  0.00  0.00     0.067 H 
ATOM      9  H2  <0> d          -0.544   1.786  -0.873  0.00  0.00     0.067 H 
ATOM     10  H3  <0> d          -0.527   1.776   0.907  0.00  0.00     0.067 H 
ENDBRANCH   6   7
ENDBRANCH   4   6
ENDBRANCH   1   4
BRANCH   1  11
ATOM     11  S1  <0> d          -2.976  -2.674   0.016  0.00  0.00     0.233 S 
ATOM     12  O3  <0> d          -3.582  -2.343   1.258  0.00  0.00    -0.206 OA
ATOM     13  O4  <0> d          -3.605  -2.329  -1.211  0.00  0.00    -0.206 OA
BRANCH  11  14
ATOM     14  N1  <0> d          -2.908  -4.328   0.007  0.00  0.00    -0.328 N 
ATOM     15  H6  <0> d          -3.611  -4.845   0.431  0.00  0.00     0.168 HD
ATOM     16  H7  <0> d          -2.165  -4.780  -0.423  0.00  0.00     0.168 HD
ENDBRANCH  11  14
ENDBRANCH   1  11
TORSDOF 5
