REMARK  2 active torsions:
REMARK  status: ('A' for Active; 'I' for Inactive)
REMARK    1  A    between atoms: C1_1  and  C2_2 
REMARK    2  A    between atoms: C2_2  and  N1_3 
ROOT
ATOM      1  N1  <0> d           2.130   4.141   0.003  0.00  0.00    -0.340 N 
ATOM      2  C3  <0> d           1.498   5.345   0.015  0.00  0.00     0.067 A 
ATOM      3  N2  <0> d           0.208   5.173   0.026  0.00  0.00    -0.242 NA
ATOM      4  C4  <0> d          -0.075   3.845   0.022  0.00  0.00     0.085 A 
ATOM      5  C5  <0> d           1.154   3.164   0.008  0.00  0.00     0.064 A 
ATOM      6  C6  <0> d           1.175   1.777   0.000  0.00  0.00    -0.055 A 
ATOM      7  C7  <0> d          -0.013   1.076   0.008  0.00  0.00    -0.081 A 
ATOM      8  C8  <0> d          -1.226   1.748   0.017  0.00  0.00    -0.081 A 
ATOM      9  C9  <0> d          -1.266   3.114   0.030  0.00  0.00    -0.053 A 
ATOM     10  H6  <0> d           1.994   6.305   0.015  0.00  0.00     0.143 H 
ATOM     11  H7  <0> d           2.117   1.248  -0.011  0.00  0.00     0.087 H 
ATOM     12  H8  <0> d           0.002  -0.004   0.002  0.00  0.00     0.083 H 
ATOM     13  H9  <0> d          -2.148   1.187   0.019  0.00  0.00     0.083 H 
ATOM     14  H10 <0> d          -2.216   3.627   0.042  0.00  0.00     0.087 H 
ENDROOT
BRANCH   1  15
ATOM     15  C2  <0> d           3.578   3.921  -0.011  0.00  0.00    -0.002 C 
ATOM     16  H4  <0> d           4.081   4.785   0.423  0.00  0.00     0.064 H 
ATOM     17  H5  <0> d           3.816   3.031   0.572  0.00  0.00     0.064 H 
BRANCH  15  18
ATOM     18  C1  <0> d           4.051   3.727  -1.453  0.00  0.00    -0.061 C 
ATOM     19  H1  <0> d           3.547   2.863  -1.887  0.00  0.00     0.029 H 
ATOM     20  H2  <0> d           3.812   4.617  -2.036  0.00  0.00     0.029 H 
ATOM     21  H3  <0> d           5.128   3.563  -1.464  0.00  0.00     0.029 H 
ENDBRANCH  15  18
ENDBRANCH   1  15
TORSDOF 2
