REMARK  1 active torsions:
REMARK  status: ('A' for Active; 'I' for Inactive)
REMARK    1  A    between atoms: C1_1  and  C2_2 
ROOT
ATOM      1  C2  <0> d           1.206  -0.682  -0.012  0.00  0.00    -0.053 A 
ATOM      2  C3  <0> d           0.002  -0.004   0.002  0.00  0.00    -0.077 A 
ATOM      3  C4  <0> d          -0.017   1.378   0.010  0.00  0.00    -0.080 A 
ATOM      4  C5  <0> d           1.171   2.083   0.002  0.00  0.00    -0.057 A 
ATOM      5  C6  <0> d           2.383   1.403  -0.012  0.00  0.00     0.034 A 
ATOM      6  C7  <0> d           2.401   0.017  -0.017  0.00  0.00    -0.026 A 
ATOM      7  C8  <0> d           3.695  -0.753  -0.023  0.00  0.00    -0.037 C 
ATOM      8  C9  <0> d           4.839   0.126  -0.528  0.00  0.00    -0.047 C 
ATOM      9  C10 <0> d           4.838   1.442   0.261  0.00  0.00    -0.007 C 
ATOM     10  N1  <0> d           3.575   2.136  -0.024  0.00  0.00    -0.389 N 
ATOM     11  H4  <0> d          -0.927  -0.555   0.007  0.00  0.00     0.084 H 
ATOM     12  H5  <0> d          -0.959   1.906   0.017  0.00  0.00     0.083 H 
ATOM     13  H6  <0> d           1.157   3.163   0.008  0.00  0.00     0.086 H 
ATOM     14  H7  <0> d           3.927  -1.088   0.999  0.00  0.00     0.040 H 
ATOM     15  H8  <0> d           3.599  -1.628  -0.682  0.00  0.00     0.040 H 
ATOM     16  H9  <0> d           5.796  -0.396  -0.380  0.00  0.00     0.035 H 
ATOM     17  H10 <0> d           4.697   0.334  -1.599  0.00  0.00     0.035 H 
ATOM     18  H11 <0> d           4.920   1.225   1.336  0.00  0.00     0.064 H 
ATOM     19  H12 <0> d           5.692   2.059  -0.055  0.00  0.00     0.064 H 
ATOM     20  H13 <0> d           3.577   3.214  -0.242  0.00  0.00     0.159 HD
ENDROOT
BRANCH   1  21
ATOM     21  C1  <0> d           1.218  -2.189  -0.021  0.00  0.00    -0.051 C 
ATOM     22  H1  <0> d           0.184  -2.564  -0.015  0.00  0.00     0.033 H 
ATOM     23  H2  <0> d           1.747  -2.557   0.871  0.00  0.00     0.033 H 
ATOM     24  H3  <0> d           1.732  -2.546  -0.925  0.00  0.00     0.033 H 
ENDBRANCH   1  21
TORSDOF 1
