REMARK  4 active torsions:
REMARK  status: ('A' for Active; 'I' for Inactive)
REMARK    1  A    between atoms: C1_1  and  C2_2 
REMARK    2  A    between atoms: C2_2  and  C3_3 
REMARK    3  A    between atoms: C3_3  and  C4_5 
REMARK    4  A    between atoms: C3_3  and  O1_11 
ROOT
ATOM      1  C3  <0> d          -0.729   1.579   1.267  0.00  0.00     0.060 C 
ATOM      2  H1  <0> d          -0.884   2.668   1.246  0.00  0.00     0.090 H 
ENDROOT
BRANCH   1   3
ATOM      3  C2  <0> d          -0.013   1.086   0.008  0.00  0.00    -0.041 C 
ATOM      4  H5  <0> d           0.002  -0.014   0.002  0.00  0.00     0.036 H 
ATOM      5  H6  <0> d           1.019   1.466   0.000  0.00  0.00     0.036 H 
BRANCH   3   6
ATOM      6  C1  <0> d          -0.753   1.593  -1.232  0.00  0.00    -0.074 C 
ATOM      7  H2  <0> d          -0.238   1.238  -2.136  0.00  0.00     0.027 H 
ATOM      8  H3  <0> d          -0.768   2.693  -1.225  0.00  0.00     0.027 H 
ATOM      9  H4  <0> d          -1.785   1.212  -1.224  0.00  0.00     0.027 H 
ENDBRANCH   3   6
ENDBRANCH   1   3
BRANCH   1  10
ATOM     10  C4  <0> d           0.067   1.185   2.485  0.00  0.00    -0.027 A 
ATOM     11  C8  <0> d           0.892   2.099   3.120  0.00  0.00    -0.058 A 
ATOM     12  C7  <0> d           1.606   1.702   4.235  0.00  0.00     0.002 A 
ATOM     13  H10 <0> d           0.976   3.110   2.749  0.00  0.00     0.086 H 
ATOM     14  N1  <0> d           1.508   0.469   4.694  0.00  0.00    -0.273 NA
ATOM     15  H9  <0> d           2.251   2.408   4.736  0.00  0.00     0.114 H 
ATOM     16  C6  <0> d           0.733  -0.427   4.115  0.00  0.00     0.002 A 
ATOM     17  C5  <0> d          -0.014  -0.100   2.999  0.00  0.00    -0.058 A 
ATOM     18  H8  <0> d           0.678  -1.427   4.520  0.00  0.00     0.114 H 
ATOM     19  H7  <0> d          -0.651  -0.837   2.532  0.00  0.00     0.086 H 
ENDBRANCH   1  10
BRANCH   1  20
ATOM     20  O1  <0> d          -2.030   0.991   1.336  0.00  0.00    -0.391 OA
ATOM     21  H11 <0> d          -2.696   1.230   2.178  0.00  0.00     0.210 HD
ENDBRANCH   1  20
TORSDOF 4
