REMARK  0 active torsions:
REMARK  status: ('A' for Active; 'I' for Inactive)
ROOT
ATOM      1  C1  <0> d           1.201  -0.726  -0.013  0.00  0.00    -0.078 A 
ATOM      2  C2  <0> d           2.415  -0.125  -0.022  0.00  0.00    -0.050 A 
ATOM      3  C3  <0> d           2.505   1.279  -0.015  0.00  0.00     0.120 A 
ATOM      4  C4  <0> d           1.250   2.071   0.001  0.00  0.00     0.155 A 
ATOM      5  C5  <0> d          -0.016   1.356   0.009  0.00  0.00     0.149 A 
ATOM      6  C6  <0> d           0.002  -0.004   0.002  0.00  0.00    -0.043 A 
ATOM      7  F1  <0> d          -1.188   2.028   0.019  0.00  0.00    -0.203 F 
ATOM      8  N1  <0> d           1.683   3.305   0.004  0.00  0.00    -0.100 NA
ATOM      9  O1  <0> d           2.898   3.299  -0.008  0.00  0.00    -0.106 OA
ATOM     10  N2  <0> d           3.430   2.207  -0.019  0.00  0.00    -0.103 NA
ATOM     11  H1  <0> d           1.156  -1.805  -0.019  0.00  0.00     0.083 H 
ATOM     12  H2  <0> d           3.313  -0.724  -0.034  0.00  0.00     0.087 H 
ATOM     13  H3  <0> d          -0.934  -0.542   0.008  0.00  0.00     0.088 H 
ENDROOT
TORSDOF 0
