REMARK  3 active torsions:
REMARK  status: ('A' for Active; 'I' for Inactive)
REMARK    1  A    between atoms: C1_1  and  C2_2 
REMARK    2  A    between atoms: C7_7  and  C8_8 
REMARK    3  A    between atoms: C8_8  and  O1_9 
ROOT
ATOM      1  C2  <0> d           2.275   3.861   0.001  0.00  0.00    -0.054 A 
ATOM      2  C3  <0> d           2.147   5.238   0.009  0.00  0.00    -0.077 A 
ATOM      3  C4  <0> d           0.891   5.815   0.024  0.00  0.00    -0.082 A 
ATOM      4  C5  <0> d          -0.237   5.016   0.030  0.00  0.00    -0.082 A 
ATOM      5  C6  <0> d          -0.109   3.640   0.017  0.00  0.00    -0.074 A 
ATOM      6  C7  <0> d           1.147   3.062   0.008  0.00  0.00    -0.029 A 
ATOM      7  H4  <0> d           3.028   5.862   0.004  0.00  0.00     0.084 H 
ATOM      8  H5  <0> d           0.791   6.890   0.030  0.00  0.00     0.083 H 
ATOM      9  H6  <0> d          -1.218   5.467   0.042  0.00  0.00     0.083 H 
ATOM     10  H7  <0> d          -0.991   3.016   0.018  0.00  0.00     0.084 H 
ENDROOT
BRANCH   6  11
ATOM     11  C8  <0> d           1.286   1.562  -0.002  0.00  0.00     0.041 C 
ATOM     12  H8  <0> d           1.840   1.243   0.881  0.00  0.00     0.081 H 
ATOM     13  H9  <0> d           1.823   1.252  -0.899  0.00  0.00     0.081 H 
BRANCH  11  14
ATOM     14  O1  <0> d          -0.011   0.963   0.007  0.00  0.00    -0.396 OA
ATOM     15  H10 <0> d           0.002  -0.004   0.002  0.00  0.00     0.209 HD
ENDBRANCH  11  14
ENDBRANCH   6  11
BRANCH   1  16
ATOM     16  C1  <0> d           3.644   3.232  -0.015  0.00  0.00    -0.051 C 
ATOM     17  H1  <0> d           3.964   3.085  -1.047  0.00  0.00     0.033 H 
ATOM     18  H2  <0> d           4.351   3.886   0.495  0.00  0.00     0.033 H 
ATOM     19  H3  <0> d           3.607   2.268   0.494  0.00  0.00     0.033 H 
ENDBRANCH   1  16
TORSDOF 3
