REMARK  3 active torsions:
REMARK  status: ('A' for Active; 'I' for Inactive)
REMARK    1  A    between atoms: C1_1  and  O1_2 
REMARK    2  A    between atoms: O1_2  and  C2_3 
REMARK    3  A    between atoms: C2_3  and  C3_5 
ROOT
ATOM      1  C3  <0> d           1.170   1.794   0.001  0.00  0.00     0.046 A 
ATOM      2  C4  <0> d           1.112   3.204   0.008  0.00  0.00    -0.052 A 
ATOM      3  C5  <0> d          -0.088   3.829   0.022  0.00  0.00    -0.019 A 
ATOM      4  N1  <0> d          -1.245   3.121   0.029  0.00  0.00    -0.334 N 
ATOM      5  H1  <0> d          -2.212   3.646   0.045  0.00  0.00     0.168 HD
ATOM      6  C6  <0> d          -1.237   1.775   0.018  0.00  0.00     0.246 A 
ATOM      7  O3  <0> d          -2.290   1.159   0.019  0.00  0.00    -0.268 OA
ATOM      8  C7  <0> d          -0.013   1.076   0.008  0.00  0.00    -0.002 A 
ATOM      9  H5  <0> d           2.023   3.784   0.003  0.00  0.00     0.087 H 
ATOM     10  H6  <0> d          -0.125   4.909   0.028  0.00  0.00     0.111 H 
ATOM     11  H7  <0> d           0.002  -0.004   0.002  0.00  0.00     0.093 H 
ENDROOT
BRANCH   1  12
ATOM     12  C2  <0> d           2.477   1.093  -0.015  0.00  0.00     0.293 C 
ATOM     13  O2  <0> d           2.516  -0.120  -0.021  0.00  0.00    -0.259 OA
BRANCH  12  14
ATOM     14  O1  <0> d           3.622   1.803  -0.022  0.00  0.00    -0.323 OA
BRANCH  14  15
ATOM     15  C1  <0> d           4.864   1.051  -0.037  0.00  0.00     0.013 C 
ATOM     16  H2  <0> d           5.714   1.749  -0.041  0.00  0.00     0.067 H 
ATOM     17  H3  <0> d           4.901   0.422  -0.938  0.00  0.00     0.067 H 
ATOM     18  H4  <0> d           4.917   0.413   0.858  0.00  0.00     0.067 H 
ENDBRANCH  14  15
ENDBRANCH  12  14
ENDBRANCH   1  12
TORSDOF 3
