REMARK  3 active torsions:
REMARK  status: ('A' for Active; 'I' for Inactive)
REMARK    1  A    between atoms: C1_1  and  O1_2 
REMARK    2  A    between atoms: O1_2  and  C2_3 
REMARK    3  A    between atoms: C2_3  and  C3_5 
ROOT
ATOM      1  C3  <0> d           0.002  -0.004   0.002  0.00  0.00     0.109 A 
ATOM      2  C4  <0> d           1.323  -0.402  -0.013  0.00  0.00    -0.029 A 
ATOM      3  C5  <0> d           2.102   0.760  -0.014  0.00  0.00     0.051 A 
ATOM      4  C6  <0> d           1.262   1.823  -0.000  0.00  0.00    -0.001 A 
ATOM      5  N1  <0> d          -0.017   1.373   0.010  0.00  0.00    -0.359 N 
ATOM      6  H1  <0> d          -0.977   1.910   0.022  0.00  0.00     0.165 HD
ATOM      7 Cl1  <0> d           3.837   0.827  -0.030  0.00  0.00    -0.083 Cl
ATOM      8  H5  <0> d           1.688  -1.419  -0.021  0.00  0.00     0.089 H 
ATOM      9  H6  <0> d           1.562   2.861   0.002  0.00  0.00     0.113 H 
ENDROOT
BRANCH   1  10
ATOM     10  C2  <0> d          -1.168  -0.886   0.008  0.00  0.00     0.309 C 
ATOM     11  O2  <0> d          -1.019  -2.093   0.001  0.00  0.00    -0.258 OA
BRANCH  10  12
ATOM     12  O1  <0> d          -2.409  -0.359   0.023  0.00  0.00    -0.321 OA
BRANCH  12  13
ATOM     13  C1  <0> d          -3.521  -1.293   0.029  0.00  0.00     0.013 C 
ATOM     14  H2  <0> d          -4.469  -0.734   0.041  0.00  0.00     0.067 H 
ATOM     15  H3  <0> d          -3.460  -1.930   0.923  0.00  0.00     0.067 H 
ATOM     16  H4  <0> d          -3.477  -1.921  -0.873  0.00  0.00     0.067 H 
ENDBRANCH  12  13
ENDBRANCH  10  12
ENDBRANCH   1  10
TORSDOF 3
