REMARK  3 active torsions:
REMARK  status: ('A' for Active; 'I' for Inactive)
REMARK    1  A    between atoms: C1_1  and  C2_2 
REMARK    2  A    between atoms: C2_2  and  C3_4 
REMARK    3  A    between atoms: C2_2  and  O1_11 
ROOT
ATOM      1  C3  <0> d           0.731  -0.503   1.223  0.00  0.00    -0.026 A 
ATOM      2  C4  <0> d           2.117  -0.521   1.264  0.00  0.00    -0.057 A 
ATOM      3  C5  <0> d           2.752  -0.985   2.400  0.00  0.00     0.004 A 
ATOM      4  N1  <0> d           2.055  -1.409   3.437  0.00  0.00    -0.249 NA
ATOM      5  C6  <0> d           0.736  -1.407   3.433  0.00  0.00     0.126 A 
ATOM      6  C7  <0> d           0.032  -0.950   2.333  0.00  0.00    -0.035 A 
ATOM      7 Cl1  <0> d          -0.127  -1.977   4.828  0.00  0.00    -0.062 Cl
ATOM      8  H5  <0> d           2.694  -0.176   0.419  0.00  0.00     0.086 H 
ATOM      9  H6  <0> d           3.831  -1.002   2.440  0.00  0.00     0.114 H 
ATOM     10  H7  <0> d          -1.048  -0.946   2.337  0.00  0.00     0.089 H 
ENDROOT
BRANCH   1  11
ATOM     11  C2  <0> d           0.002  -0.004   0.002  0.00  0.00     0.057 C 
ATOM     12  H1  <0> d          -1.020  -0.381   0.010  0.00  0.00     0.089 H 
BRANCH  11  13
ATOM     13  C1  <0> d          -0.019   1.526   0.010  0.00  0.00    -0.049 C 
ATOM     14  H2  <0> d           1.004   1.903   0.003  0.00  0.00     0.031 H 
ATOM     15  H3  <0> d          -0.546   1.887  -0.873  0.00  0.00     0.031 H 
ATOM     16  H4  <0> d          -0.529   1.877   0.907  0.00  0.00     0.031 H 
ENDBRANCH  11  13
BRANCH  11  17
ATOM     17  O1  <0> d           0.671  -0.465  -1.174  0.00  0.00    -0.391 OA
ATOM     18  H8  <0> d           1.588  -0.167  -1.247  0.00  0.00     0.210 HD
ENDBRANCH  11  17
ENDBRANCH   1  11
TORSDOF 3
