REMARK  3 active torsions:
REMARK  status: ('A' for Active; 'I' for Inactive)
REMARK    1  A    between atoms: C1_1  and  C2_2 
REMARK    2  A    between atoms: C2_2  and  C3_3 
REMARK    3  A    between atoms: C5_5  and  N2_8 
ROOT
ATOM      1  C3  <0> d          -1.089   1.894   0.017  0.00  0.00     0.082 A 
ATOM      2  C4  <0> d          -0.013   1.076   0.008  0.00  0.00    -0.006 A 
ATOM      3  C5  <0> d           1.095   1.966   0.002  0.00  0.00     0.151 A 
ATOM      4  N1  <0> d           0.592   3.174   0.013  0.00  0.00    -0.111 NA
ATOM      5  O1  <0> d          -0.617   3.149   0.025  0.00  0.00    -0.216 OA
ATOM      6  H6  <0> d           0.002  -0.004   0.002  0.00  0.00     0.093 H 
ENDROOT
BRANCH   1   7
ATOM      7  C2  <0> d          -2.537   1.477   0.019  0.00  0.00    -0.021 C 
ATOM      8  H4  <0> d          -3.134   2.235  -0.488  0.00  0.00     0.042 H 
ATOM      9  H5  <0> d          -2.642   0.524  -0.500  0.00  0.00     0.042 H 
BRANCH   7  10
ATOM     10  C1  <0> d          -3.022   1.327   1.463  0.00  0.00    -0.071 C 
ATOM     11  H1  <0> d          -2.425   0.570   1.970  0.00  0.00     0.028 H 
ATOM     12  H2  <0> d          -2.917   2.280   1.982  0.00  0.00     0.028 H 
ATOM     13  H3  <0> d          -4.069   1.025   1.465  0.00  0.00     0.028 H 
ENDBRANCH   7  10
ENDBRANCH   1   7
BRANCH   3  14
ATOM     14  N2  <0> d           2.443   1.623  -0.012  0.00  0.00    -0.382 N 
ATOM     15  H7  <0> d           2.705   0.689  -0.019  0.00  0.00     0.157 HD
ATOM     16  H8  <0> d           3.120   2.317  -0.015  0.00  0.00     0.157 HD
ENDBRANCH   3  14
TORSDOF 3
