REMARK  4 active torsions:
REMARK  status: ('A' for Active; 'I' for Inactive)
REMARK    1  A    between atoms: C1_1  and  C2_2 
REMARK    2  A    between atoms: C2_2  and  C4_4 
REMARK    3  A    between atoms: C4_4  and  C5_6 
REMARK    4  A    between atoms: C4_4  and  O1_12 
ROOT
ATOM      1  C4  <0> d           0.002  -0.004   0.002  0.00  0.00     0.081 C 
ATOM      2  H1  <0> d           0.942  -0.357   0.425  0.00  0.00     0.097 H 
ENDROOT
BRANCH   1   3
ATOM      3  C2  <0> d          -0.128  -0.500  -1.415  0.00  0.00    -0.060 C 
ATOM      4  C3  <0> d           0.860  -1.154  -1.974  0.00  0.00    -0.117 C 
ATOM      5  H5  <0> d           0.766  -1.510  -2.989  0.00  0.00     0.067 H 
ATOM      6  H6  <0> d           1.768  -1.338  -1.419  0.00  0.00     0.067 H 
BRANCH   3   7
ATOM      7  C1  <0> d          -1.396  -0.244  -2.189  0.00  0.00    -0.053 C 
ATOM      8  H2  <0> d          -2.097   0.309  -1.565  0.00  0.00     0.033 H 
ATOM      9  H3  <0> d          -1.165   0.338  -3.081  0.00  0.00     0.033 H 
ATOM     10  H4  <0> d          -1.841  -1.195  -2.482  0.00  0.00     0.033 H 
ENDBRANCH   3   7
ENDBRANCH   1   3
BRANCH   1  11
ATOM     11  C5  <0> d          -0.018   1.503   0.010  0.00  0.00    -0.026 A 
ATOM     12  C10 <0> d           1.169   2.210   0.003  0.00  0.00    -0.074 A 
ATOM     13  C9  <0> d           1.151   3.592   0.010  0.00  0.00    -0.082 A 
ATOM     14  H11 <0> d           2.112   1.683  -0.009  0.00  0.00     0.084 H 
ATOM     15  C8  <0> d          -0.056   4.267   0.025  0.00  0.00    -0.083 A 
ATOM     16  H10 <0> d           2.078   4.145   0.005  0.00  0.00     0.083 H 
ATOM     17  C7  <0> d          -1.244   3.560   0.032  0.00  0.00    -0.082 A 
ATOM     18  H9  <0> d          -0.070   5.347   0.032  0.00  0.00     0.083 H 
ATOM     19  C6  <0> d          -1.225   2.178   0.020  0.00  0.00    -0.074 A 
ATOM     20  H8  <0> d          -2.186   4.087   0.044  0.00  0.00     0.083 H 
ATOM     21  H7  <0> d          -2.153   1.625   0.021  0.00  0.00     0.084 H 
ENDBRANCH   1  11
BRANCH   1  22
ATOM     22  O1  <0> d          -1.088  -0.499   0.783  0.00  0.00    -0.387 OA
ATOM     23  H12 <0> d          -1.958  -0.224   0.463  0.00  0.00     0.210 HD
ENDBRANCH   1  22
TORSDOF 4
