REMARK  1 active torsions:
REMARK  status: ('A' for Active; 'I' for Inactive)
REMARK    1  A    between atoms: C7_9  and  N2_11 
ROOT
ATOM      1  C1  <0> d          -2.300   4.148   0.046  0.00  0.00    -0.053 A 
ATOM      2  C2  <0> d          -1.707   5.351   0.046  0.00  0.00    -0.022 A 
ATOM      3  N1  <0> d          -0.344   5.200   0.033  0.00  0.00    -0.365 N 
ATOM      4  H1  <0> d           0.297   5.928   0.031  0.00  0.00     0.165 HD
ATOM      5  C3  <0> d          -0.022   3.861   0.023  0.00  0.00     0.047 A 
ATOM      6  C4  <0> d          -1.232   3.143   0.031  0.00  0.00     0.031 A 
ATOM      7  C5  <0> d          -1.216   1.745   0.017  0.00  0.00     0.131 A 
ATOM      8  C6  <0> d          -0.013   1.076   0.008  0.00  0.00    -0.019 A 
ATOM      9  C7  <0> d           1.187   1.786   0.000  0.00  0.00     0.030 A 
ATOM     10  C8  <0> d           1.184   3.170   0.008  0.00  0.00    -0.031 A 
ATOM     11  F1  <0> d          -2.377   1.054   0.019  0.00  0.00    -0.205 F 
ATOM     12  H2  <0> d          -3.362   3.955   0.055  0.00  0.00     0.087 H 
ATOM     13  H3  <0> d          -2.226   6.298   0.056  0.00  0.00     0.111 H 
ATOM     14  H4  <0> d           0.002  -0.004   0.002  0.00  0.00     0.091 H 
ATOM     15  H5  <0> d           2.118   3.713   0.002  0.00  0.00     0.090 H 
ENDROOT
BRANCH   9  16
ATOM     16  N2  <0> d           2.402   1.095  -0.015  0.00  0.00    -0.399 N 
ATOM     17  H6  <0> d           2.408   0.125  -0.021  0.00  0.00     0.156 HD
ATOM     18  H7  <0> d           3.239   1.585  -0.021  0.00  0.00     0.156 HD
ENDBRANCH   9  16
TORSDOF 1
