REMARK  4 active torsions:
REMARK  status: ('A' for Active; 'I' for Inactive)
REMARK    1  A    between atoms: C1_1  and  C2_2 
REMARK    2  A    between atoms: C3_4  and  C5_7 
REMARK    3  A    between atoms: C5_7  and  O2_9 
REMARK    4  A    between atoms: O2_9  and  C6_10 
ROOT
ATOM      1  C2  <0> d           0.199   5.587   0.029  0.00  0.00     0.072 A 
ATOM      2  N1  <0> d           0.119   4.282   0.018  0.00  0.00    -0.240 NA
ATOM      3  C3  <0> d           1.232   3.546   0.009  0.00  0.00     0.139 A 
ATOM      4  C4  <0> d           2.432   4.212   0.002  0.00  0.00    -0.009 A 
ATOM      5  S1  <0> d           1.910   5.867   0.015  0.00  0.00    -0.085 SA
ATOM      6  H4  <0> d           3.435   3.812  -0.010  0.00  0.00     0.099 H 
ENDROOT
BRANCH   3   7
ATOM      7  C5  <0> d           1.175   2.076   0.002  0.00  0.00     0.312 C 
ATOM      8  O1  <0> d           2.203   1.428  -0.011  0.00  0.00    -0.258 OA
BRANCH   7   9
ATOM      9  O2  <0> d          -0.018   1.448   0.010  0.00  0.00    -0.321 OA
BRANCH   9  10
ATOM     10  C6  <0> d           0.002  -0.004   0.002  0.00  0.00     0.013 C 
ATOM     11  H5  <0> d          -1.020  -0.381   0.010  0.00  0.00     0.067 H 
ATOM     12  H6  <0> d           0.512  -0.356  -0.895  0.00  0.00     0.067 H 
ATOM     13  H7  <0> d           0.529  -0.365   0.885  0.00  0.00     0.067 H 
ENDBRANCH   9  10
ENDBRANCH   7   9
ENDBRANCH   3   7
BRANCH   1  14
ATOM     14  C1  <0> d          -0.919   6.597   0.045  0.00  0.00    -0.029 C 
ATOM     15  H1  <0> d          -0.499   7.603   0.046  0.00  0.00     0.036 H 
ATOM     16  H2  <0> d          -1.541   6.464  -0.840  0.00  0.00     0.036 H 
ATOM     17  H3  <0> d          -1.525   6.455   0.940  0.00  0.00     0.036 H 
ENDBRANCH   1  14
TORSDOF 4
