REMARK  3 active torsions:
REMARK  status: ('A' for Active; 'I' for Inactive)
REMARK    1  A    between atoms: C1_1  and  C2_2 
REMARK    2  A    between atoms: C2_2  and  C3_3 
REMARK    3  A    between atoms: C3_3  and  C4_4 
ROOT
ATOM      1  C3  <0> d          -1.433  -0.534   0.013  0.00  0.00    -0.009 C 
ATOM      2  H8  <0> d          -1.944  -0.182   0.910  0.00  0.00     0.044 H 
ATOM      3  H9  <0> d          -1.960  -0.173  -0.870  0.00  0.00     0.044 H 
ENDROOT
BRANCH   1   4
ATOM      4  C2  <0> d           0.002  -0.004   0.002  0.00  0.00    -0.062 C 
ATOM      5  H6  <0> d           0.512  -0.356  -0.895  0.00  0.00     0.033 H 
ATOM      6  H7  <0> d           0.529  -0.365   0.885  0.00  0.00     0.033 H 
BRANCH   4   7
ATOM      7  C1  <0> d          -0.019   1.526   0.010  0.00  0.00    -0.076 C 
ATOM      8  H3  <0> d           1.004   1.903   0.003  0.00  0.00     0.027 H 
ATOM      9  H4  <0> d          -0.546   1.887  -0.873  0.00  0.00     0.027 H 
ATOM     10  H5  <0> d          -0.529   1.877   0.907  0.00  0.00     0.027 H 
ENDBRANCH   4   7
ENDBRANCH   1   4
BRANCH   1  11
ATOM     11  C4  <0> d          -1.413  -2.041   0.005  0.00  0.00     0.128 A 
ATOM     12  N3  <0> d          -2.519  -2.855   0.011  0.00  0.00    -0.294 N 
ATOM     13  H1  <0> d          -3.442  -2.558   0.021  0.00  0.00     0.172 HD
ATOM     14  C5  <0> d          -2.102  -4.137  -0.004  0.00  0.00     0.342 A 
ATOM     15  N2  <0> d          -0.752  -4.122  -0.009  0.00  0.00    -0.227 N 
ATOM     16  O1  <0> d          -2.812  -5.126  -0.006  0.00  0.00    -0.245 OA
ATOM     17  N1  <0> d          -0.350  -2.779  -0.004  0.00  0.00    -0.157 NA
ATOM     18  H2  <0> d          -0.169  -4.897  -0.016  0.00  0.00     0.194 HD
ENDBRANCH   1  11
TORSDOF 3
