REMARK  6 active torsions:
REMARK  status: ('A' for Active; 'I' for Inactive)
REMARK    1  A    between atoms: C1_1  and  C2_2 
REMARK    2  A    between atoms: C2_2  and  C3_3 
REMARK    3  A    between atoms: C2_2  and  C4_4 
REMARK    4  A    between atoms: C2_2  and  O1_5 
REMARK    5  A    between atoms: O1_5  and  C5_6 
REMARK    6  A    between atoms: C5_6  and  C6_8 
ROOT
ATOM      1  C6  <0> d          -0.018   1.468   0.010  0.00  0.00     0.095 C 
ATOM      2  C7  <0> d           0.002  -0.004   0.002  0.00  0.00     0.069 C 
ATOM      3  N1  <0> d           0.018  -1.140  -0.004  0.00  0.00    -0.197 NA
ATOM      4  H10 <0> d           1.005   1.845   0.002  0.00  0.00     0.070 H 
ATOM      5  H11 <0> d          -0.545   1.829  -0.873  0.00  0.00     0.070 H 
ENDROOT
BRANCH   1   6
ATOM      6  C5  <0> d          -0.723   1.954   1.250  0.00  0.00     0.272 C 
ATOM      7  O2  <0> d          -1.164   1.158   2.045  0.00  0.00    -0.264 OA
BRANCH   6   8
ATOM      8  O1  <0> d          -0.862   3.271   1.471  0.00  0.00    -0.311 OA
BRANCH   8   9
ATOM      9  C2  <0> d          -1.552   3.666   2.686  0.00  0.00     0.060 C 
BRANCH   9  10
ATOM     10  C1  <0> d          -0.798   3.123   3.901  0.00  0.00    -0.048 C 
ATOM     11  H1  <0> d           0.215   3.526   3.910  0.00  0.00     0.031 H 
ATOM     12  H2  <0> d          -1.316   3.420   4.812  0.00  0.00     0.031 H 
ATOM     13  H3  <0> d          -0.755   2.035   3.845  0.00  0.00     0.031 H 
ENDBRANCH   9  10
BRANCH   9  14
ATOM     14  C3  <0> d          -1.612   5.193   2.764  0.00  0.00    -0.048 C 
ATOM     15  H4  <0> d          -2.149   5.580   1.898  0.00  0.00     0.031 H 
ATOM     16  H5  <0> d          -2.130   5.490   3.675  0.00  0.00     0.031 H 
ATOM     17  H6  <0> d          -0.600   5.596   2.773  0.00  0.00     0.031 H 
ENDBRANCH   9  14
BRANCH   9  18
ATOM     18  C4  <0> d          -2.973   3.100   2.672  0.00  0.00    -0.048 C 
ATOM     19  H7  <0> d          -2.930   2.012   2.616  0.00  0.00     0.031 H 
ATOM     20  H8  <0> d          -3.491   3.397   3.584  0.00  0.00     0.031 H 
ATOM     21  H9  <0> d          -3.510   3.487   1.806  0.00  0.00     0.031 H 
ENDBRANCH   9  18
ENDBRANCH   8   9
ENDBRANCH   6   8
ENDBRANCH   1   6
TORSDOF 6
