REMARK  6 active torsions:
REMARK  status: ('A' for Active; 'I' for Inactive)
REMARK    1  A    between atoms: C1_1  and  C2_2 
REMARK    2  A    between atoms: C2_2  and  C3_3 
REMARK    3  A    between atoms: C2_2  and  C4_4 
REMARK    4  A    between atoms: C2_2  and  O1_5 
REMARK    5  A    between atoms: O1_5  and  C5_6 
REMARK    6  A    between atoms: C5_6  and  C6_7 
ROOT
ATOM      1  C6  <0> d          -0.018   1.468   0.010  0.00  0.00     0.034 C 
ATOM      2  C7  <0> d           0.002  -0.004   0.002  0.00  0.00     0.061 C 
ATOM      3  N1  <0> d           0.018  -1.140  -0.004  0.00  0.00    -0.197 NA
ATOM      4  H12 <0> d           1.005   1.845   0.002  0.00  0.00     0.058 H 
ATOM      5  H13 <0> d          -0.545   1.829  -0.873  0.00  0.00     0.058 H 
ENDROOT
BRANCH   1   6
ATOM      6  C5  <0> d          -0.734   1.961   1.269  0.00  0.00     0.032 C 
ATOM      7  H10 <0> d          -1.757   1.584   1.277  0.00  0.00     0.075 H 
ATOM      8  H11 <0> d          -0.207   1.600   2.152  0.00  0.00     0.075 H 
BRANCH   6   9
ATOM      9  O1  <0> d          -0.753   3.390   1.277  0.00  0.00    -0.380 OA
BRANCH   9  10
ATOM     10  C2  <0> d          -1.403   3.956   2.417  0.00  0.00     0.050 C 
BRANCH  10  11
ATOM     11  C1  <0> d          -0.683   3.507   3.690  0.00  0.00    -0.048 C 
ATOM     12  H1  <0> d           0.354   3.843   3.658  0.00  0.00     0.031 H 
ATOM     13  H2  <0> d          -1.178   3.939   4.559  0.00  0.00     0.031 H 
ATOM     14  H3  <0> d          -0.710   2.420   3.759  0.00  0.00     0.031 H 
ENDBRANCH  10  11
BRANCH  10  15
ATOM     15  C3  <0> d          -1.364   5.483   2.320  0.00  0.00    -0.048 C 
ATOM     16  H4  <0> d          -1.878   5.802   1.413  0.00  0.00     0.031 H 
ATOM     17  H5  <0> d          -1.860   5.915   3.189  0.00  0.00     0.031 H 
ATOM     18  H6  <0> d          -0.328   5.819   2.288  0.00  0.00     0.031 H 
ENDBRANCH  10  15
BRANCH  10  19
ATOM     19  C4  <0> d          -2.858   3.485   2.461  0.00  0.00    -0.048 C 
ATOM     20  H7  <0> d          -2.886   2.397   2.530  0.00  0.00     0.031 H 
ATOM     21  H8  <0> d          -3.354   3.917   3.330  0.00  0.00     0.031 H 
ATOM     22  H9  <0> d          -3.371   3.804   1.554  0.00  0.00     0.031 H 
ENDBRANCH  10  19
ENDBRANCH   9  10
ENDBRANCH   6   9
ENDBRANCH   1   6
TORSDOF 6
