REMARK  1 active torsions:
REMARK  status: ('A' for Active; 'I' for Inactive)
REMARK    1  A    between atoms: C1_1  and  N1_2 
ROOT
ATOM      1  N1  <0> d          -0.700   3.170   0.026  0.00  0.00    -0.264 N 
ATOM      2  C2  <0> d           0.665   3.210   0.013  0.00  0.00     0.133 A 
ATOM      3  C3  <0> d           1.109   1.902   0.002  0.00  0.00    -0.027 A 
ATOM      4  C4  <0> d          -0.013   1.076   0.008  0.00  0.00     0.025 A 
ATOM      5  N2  <0> d          -1.087   1.824   0.017  0.00  0.00    -0.184 NA
ATOM      6  C5  <0> d           1.483   4.386   0.011  0.00  0.00     0.119 C 
ATOM      7  N3  <0> d           2.131   5.319   0.009  0.00  0.00    -0.190 NA
ATOM      8  H4  <0> d           2.139   1.579  -0.010  0.00  0.00     0.090 H 
ATOM      9  H5  <0> d           0.002  -0.004   0.002  0.00  0.00     0.117 H 
ENDROOT
BRANCH   1  10
ATOM     10  C1  <0> d          -1.599   4.327   0.041  0.00  0.00     0.004 C 
ATOM     11  H1  <0> d          -1.831   4.619  -0.983  0.00  0.00     0.059 H 
ATOM     12  H2  <0> d          -2.519   4.065   0.562  0.00  0.00     0.059 H 
ATOM     13  H3  <0> d          -1.113   5.157   0.554  0.00  0.00     0.059 H 
ENDBRANCH   1  10
TORSDOF 1
