REMARK  4 active torsions:
REMARK  status: ('A' for Active; 'I' for Inactive)
REMARK    1  A    between atoms: C1_1  and  C2_2 
REMARK    2  A    between atoms: C4_5  and  C5_7 
REMARK    3  A    between atoms: C5_7  and  O2_9 
REMARK    4  A    between atoms: O2_9  and  C6_10 
ROOT
ATOM      1  C2  <0> d           2.151   1.092  -0.013  0.00  0.00     0.038 A 
ATOM      2  C3  <0> d           1.728  -0.205  -0.015  0.00  0.00    -0.019 A 
ATOM      3  S1  <0> d           0.002  -0.004   0.002  0.00  0.00    -0.074 SA
ATOM      4  C4  <0> d          -0.022   1.782   0.012  0.00  0.00     0.173 A 
ATOM      5  N1  <0> d           1.276   2.061   0.001  0.00  0.00    -0.240 NA
ATOM      6  H4  <0> d           2.310  -1.114  -0.026  0.00  0.00     0.098 H 
ENDROOT
BRANCH   4   7
ATOM      7  C5  <0> d          -1.172   2.699   0.023  0.00  0.00     0.318 C 
ATOM      8  O1  <0> d          -0.992   3.901   0.028  0.00  0.00    -0.257 OA
BRANCH   7   9
ATOM      9  O2  <0> d          -2.427   2.206   0.027  0.00  0.00    -0.321 OA
BRANCH   9  10
ATOM     10  C6  <0> d          -3.514   3.170   0.037  0.00  0.00     0.013 C 
ATOM     11  H5  <0> d          -3.440   3.791   0.930  0.00  0.00     0.067 H 
ATOM     12  H6  <0> d          -3.450   3.800  -0.850  0.00  0.00     0.067 H 
ATOM     13  H7  <0> d          -4.467   2.642   0.040  0.00  0.00     0.067 H 
ENDBRANCH   9  10
ENDBRANCH   7   9
ENDBRANCH   4   7
BRANCH   1  14
ATOM     14  C1  <0> d           3.625   1.405  -0.025  0.00  0.00    -0.035 C 
ATOM     15  H1  <0> d           3.971   1.486  -1.055  0.00  0.00     0.035 H 
ATOM     16  H2  <0> d           3.800   2.349   0.493  0.00  0.00     0.035 H 
ATOM     17  H3  <0> d           4.170   0.608   0.480  0.00  0.00     0.035 H 
ENDBRANCH   1  14
TORSDOF 4
