REMARK  2 active torsions:
REMARK  status: ('A' for Active; 'I' for Inactive)
REMARK    1  A    between atoms: C1_1  and  C2_2 
REMARK    2  A    between atoms: C6_9  and  C7_10 
ROOT
ATOM      1  C2  <0> d          -1.260   2.972   0.029  0.00  0.00    -0.038 A 
ATOM      2  C3  <0> d          -0.085   3.725   0.022  0.00  0.00    -0.050 A 
ATOM      3  C4  <0> d           1.141   3.064   0.007  0.00  0.00     0.113 A 
ATOM      4  C5  <0> d           1.152   1.644  -0.000  0.00  0.00     0.266 A 
ATOM      5  O1  <0> d           2.212   1.042  -0.013  0.00  0.00    -0.267 OA
ATOM      6  N1  <0> d          -0.011   0.966   0.007  0.00  0.00    -0.326 N 
ATOM      7  H1  <0> d           0.003  -0.034   0.006  0.00  0.00     0.169 HD
ATOM      8  C6  <0> d          -1.200   1.617   0.017  0.00  0.00     0.014 A 
ATOM      9  C8  <0> d           2.367   3.802  -0.000  0.00  0.00     0.105 C 
ATOM     10  N2  <0> d           3.341   4.388  -0.006  0.00  0.00    -0.191 NA
ATOM     11  H5  <0> d          -0.125   4.804   0.028  0.00  0.00     0.086 H 
ENDROOT
BRANCH   1  12
ATOM     12  C1  <0> d          -2.597   3.666   0.045  0.00  0.00    -0.049 C 
ATOM     13  H2  <0> d          -2.447   4.745   0.049  0.00  0.00     0.033 H 
ATOM     14  H3  <0> d          -3.165   3.381  -0.841  0.00  0.00     0.033 H 
ATOM     15  H4  <0> d          -3.148   3.372   0.939  0.00  0.00     0.033 H 
ENDBRANCH   1  12
BRANCH   8  16
ATOM     16  C7  <0> d          -2.479   0.820   0.019  0.00  0.00    -0.037 C 
ATOM     17  H6  <0> d          -2.244  -0.244   0.012  0.00  0.00     0.035 H 
ATOM     18  H7  <0> d          -3.055   1.059   0.913  0.00  0.00     0.035 H 
ATOM     19  H8  <0> d          -3.063   1.069  -0.867  0.00  0.00     0.035 H 
ENDBRANCH   8  16
TORSDOF 2
