REMARK  2 active torsions:
REMARK  status: ('A' for Active; 'I' for Inactive)
REMARK    1  A    between atoms: C4_4  and  N2_10 
REMARK    2  A    between atoms: C5_5  and  C7_7 
REMARK       I    between atoms: C7_7  and  N1_9 
ROOT
ATOM      1  C1  <0> d          -0.071   1.261   0.033  0.00  0.00    -0.082 A 
ATOM      2  C2  <0> d           1.046   2.082   0.014  0.00  0.00    -0.081 A 
ATOM      3  C3  <0> d           2.312   1.537  -0.025  0.00  0.00    -0.057 A 
ATOM      4  C4  <0> d           2.477   0.157  -0.045  0.00  0.00     0.041 A 
ATOM      5  C5  <0> d           1.348  -0.676  -0.025  0.00  0.00     0.058 A 
ATOM      6  C6  <0> d           0.072  -0.109   0.014  0.00  0.00    -0.066 A 
ATOM      7  H1  <0> d          -1.058   1.698   0.068  0.00  0.00     0.083 H 
ATOM      8  H2  <0> d           0.923   3.155   0.029  0.00  0.00     0.083 H 
ATOM      9  H3  <0> d           3.178   2.184  -0.040  0.00  0.00     0.086 H 
ATOM     10  H4  <0> d          -0.802  -0.744   0.029  0.00  0.00     0.085 H 
ENDROOT
BRANCH   5  11
ATOM     11  C7  <0> d           1.508  -2.142  -0.047  0.00  0.00     0.251 C 
ATOM     12  O1  <0> d           2.618  -2.634   0.028  0.00  0.00    -0.268 OA
ATOM     13  N1  <0> d           0.424  -2.937  -0.149  0.00  0.00    -0.366 N 
ATOM     14  H5  <0> d          -0.461  -2.545  -0.209  0.00  0.00     0.159 HD
ATOM     15  H6  <0> d           0.530  -3.901  -0.164  0.00  0.00     0.159 HD
ENDBRANCH   5  11
BRANCH   4  16
ATOM     16  N2  <0> d           3.751  -0.393  -0.085  0.00  0.00    -0.398 N 
ATOM     17  H7  <0> d           4.526   0.183  -0.180  0.00  0.00     0.156 HD
ATOM     18  H8  <0> d           3.866  -1.354  -0.018  0.00  0.00     0.156 HD
ENDBRANCH   4  16
TORSDOF 2
