REMARK  1 active torsions:
REMARK  status: ('A' for Active; 'I' for Inactive)
REMARK    1  A    between atoms: C2_2  and  N3_9 
ROOT
ATOM      1  C1  <0> d          -0.013   1.076   0.008  0.00  0.00     0.011 A 
ATOM      2  C2  <0> d           1.169   1.793   0.001  0.00  0.00     0.050 A 
ATOM      3  C3  <0> d           1.123   3.204   0.009  0.00  0.00     0.047 A 
ATOM      4  N1  <0> d          -0.022   3.827   0.023  0.00  0.00    -0.182 NA
ATOM      5  N2  <0> d          -1.227   3.118   0.031  0.00  0.00    -0.244 N 
ATOM      6  H1  <0> d          -2.184   3.660   0.049  0.00  0.00     0.192 HD
ATOM      7  C4  <0> d          -1.230   1.770   0.017  0.00  0.00     0.263 A 
ATOM      8  O1  <0> d          -2.287   1.158   0.019  0.00  0.00    -0.267 OA
ATOM      9  H2  <0> d           0.002  -0.004   0.002  0.00  0.00     0.095 H 
ATOM     10  H3  <0> d           2.042   3.771   0.003  0.00  0.00     0.120 H 
ENDROOT
BRANCH   2  11
ATOM     11  N3  <0> d           2.386   1.135  -0.015  0.00  0.00    -0.398 N 
ATOM     12  H4  <0> d           3.323   1.710  -0.021  0.00  0.00     0.156 HD
ATOM     13  H5  <0> d           2.416   0.035  -0.022  0.00  0.00     0.156 HD
ENDBRANCH   2  11
TORSDOF 1
