REMARK  1 active torsions:
REMARK  status: ('A' for Active; 'I' for Inactive)
REMARK    1  A    between atoms: C6_6  and  N1_7 
ROOT
ATOM      1  C1  <0> d          -0.013   1.076   0.008  0.00  0.00    -0.057 A 
ATOM      2  C2  <0> d           1.172   1.784   0.000  0.00  0.00    -0.074 A 
ATOM      3  C3  <0> d           1.159   3.169   0.008  0.00  0.00    -0.052 A 
ATOM      4  C4  <0> d          -0.045   3.848   0.023  0.00  0.00    -0.050 A 
ATOM      5  C5  <0> d          -1.236   3.143   0.030  0.00  0.00    -0.051 A 
ATOM      6  C6  <0> d          -1.224   1.755   0.017  0.00  0.00     0.026 A 
ATOM      7  C7  <0> d           0.209   5.341   0.029  0.00  0.00    -0.040 C 
ATOM      8  C8  <0> d           1.676   5.502  -0.425  0.00  0.00    -0.058 C 
ATOM      9  C9  <0> d           2.305   4.159   0.003  0.00  0.00    -0.040 C 
ATOM     10  H1  <0> d           0.002  -0.004   0.002  0.00  0.00     0.086 H 
ATOM     11  H2  <0> d           2.114   1.255  -0.011  0.00  0.00     0.084 H 
ATOM     12  H3  <0> d          -2.176   3.674   0.042  0.00  0.00     0.087 H 
ATOM     13  H6  <0> d          -0.460   5.841  -0.671  0.00  0.00     0.040 H 
ATOM     14  H7  <0> d           0.078   5.743   1.033  0.00  0.00     0.040 H 
ATOM     15  H8  <0> d           1.735   5.631  -1.506  0.00  0.00     0.033 H 
ATOM     16  H9  <0> d           2.152   6.335   0.093  0.00  0.00     0.033 H 
ATOM     17  H10 <0> d           2.736   4.244   1.000  0.00  0.00     0.040 H 
ATOM     18  H11 <0> d           3.066   3.852  -0.714  0.00  0.00     0.040 H 
ENDROOT
BRANCH   6  19
ATOM     19  N1  <0> d          -2.426   1.044   0.020  0.00  0.00    -0.399 N 
ATOM     20  H4  <0> d          -2.416   0.074   0.015  0.00  0.00     0.156 HD
ATOM     21  H5  <0> d          -3.271   1.521   0.026  0.00  0.00     0.156 HD
ENDBRANCH   6  19
TORSDOF 1
