REMARK  5 active torsions:
REMARK  status: ('A' for Active; 'I' for Inactive)
REMARK    1  A    between atoms: C1_1  and  O1_2 
REMARK    2  A    between atoms: O1_2  and  C2_3 
REMARK    3  A    between atoms: C2_3  and  C3_4 
REMARK    4  A    between atoms: C3_4  and  O2_5 
REMARK    5  A    between atoms: O2_5  and  C4_6 
ROOT
ATOM      1  C2  <0> d           0.002  -0.004   0.002  0.00  0.00     0.038 C 
ATOM      2  H4  <0> d           0.512  -0.356  -0.895  0.00  0.00     0.077 H 
ATOM      3  H5  <0> d           0.529  -0.365   0.885  0.00  0.00     0.077 H 
ENDROOT
BRANCH   1   4
ATOM      4  O1  <0> d          -0.017   1.425   0.010  0.00  0.00    -0.394 OA
BRANCH   4   5
ATOM      5  C1  <0> d           1.280   2.024   0.001  0.00  0.00     0.004 C 
ATOM      6  H1  <0> d           1.179   3.109   0.007  0.00  0.00     0.066 H 
ATOM      7  H2  <0> d           1.834   1.705   0.884  0.00  0.00     0.066 H 
ATOM      8  H3  <0> d           1.817   1.714  -0.896  0.00  0.00     0.066 H 
ENDBRANCH   4   5
ENDBRANCH   1   4
BRANCH   1   9
ATOM      9  C3  <0> d          -1.433  -0.534   0.013  0.00  0.00     0.038 C 
ATOM     10  H6  <0> d          -1.419  -1.620   0.097  0.00  0.00     0.077 H 
ATOM     11  H7  <0> d          -1.970  -0.111   0.862  0.00  0.00     0.077 H 
BRANCH   9  12
ATOM     12  O2  <0> d          -2.089  -0.158  -1.200  0.00  0.00    -0.394 OA
BRANCH  12  13
ATOM     13  C4  <0> d          -3.443  -0.606  -1.292  0.00  0.00     0.004 C 
ATOM     14  H8  <0> d          -3.470  -1.694  -1.235  0.00  0.00     0.066 H 
ATOM     15  H9  <0> d          -4.021  -0.184  -0.469  0.00  0.00     0.066 H 
ATOM     16  H10 <0> d          -3.870  -0.280  -2.240  0.00  0.00     0.066 H 
ENDBRANCH  12  13
ENDBRANCH   9  12
ENDBRANCH   1   9
TORSDOF 5
