REMARK  4 active torsions:
REMARK  status: ('A' for Active; 'I' for Inactive)
REMARK    1  A    between atoms: C1_1  and  C2_2 
REMARK    2  A    between atoms: C2_2  and  C3_3 
REMARK    3  A    between atoms: C3_3  and  C4_4 
REMARK    4  A    between atoms: C4_4  and  C5_5 
ROOT
ATOM      1  C5  <0> d           1.428  -2.502  -2.476  0.00  0.00    -0.091 C 
ATOM      2  C6  <0> d           1.978  -2.881  -3.442  0.00  0.00     0.013 C 
ATOM      3  C7  <0> d           2.622  -3.325  -4.575  0.00  0.00     0.152 C 
ATOM      4  N1  <0> d           3.154  -3.691  -5.510  0.00  0.00    -0.182 NA
ENDROOT
BRANCH   1   5
ATOM      5  C4  <0> d           0.739  -2.027  -1.265  0.00  0.00    -0.008 C 
ATOM      6  H8  <0> d           1.266  -2.388  -0.382  0.00  0.00     0.051 H 
ATOM      7  H9  <0> d          -0.284  -2.405  -1.258  0.00  0.00     0.051 H 
BRANCH   5   8
ATOM      8  C3  <0> d           0.718  -0.497  -1.257  0.00  0.00    -0.056 C 
ATOM      9  H6  <0> d           0.191  -0.136  -2.140  0.00  0.00     0.034 H 
ATOM     10  H7  <0> d           1.741  -0.120  -1.264  0.00  0.00     0.034 H 
BRANCH   8  11
ATOM     11  C2  <0> d           0.002  -0.004   0.002  0.00  0.00    -0.068 C 
ATOM     12  H4  <0> d           0.529  -0.365   0.885  0.00  0.00     0.032 H 
ATOM     13  H5  <0> d          -1.020  -0.381   0.010  0.00  0.00     0.032 H 
BRANCH  11  14
ATOM     14  C1  <0> d          -0.019   1.526   0.010  0.00  0.00    -0.076 C 
ATOM     15  H1  <0> d           1.004   1.903   0.003  0.00  0.00     0.027 H 
ATOM     16  H2  <0> d          -0.546   1.887  -0.873  0.00  0.00     0.027 H 
ATOM     17  H3  <0> d          -0.529   1.877   0.907  0.00  0.00     0.027 H 
ENDBRANCH  11  14
ENDBRANCH   8  11
ENDBRANCH   5   8
ENDBRANCH   1   5
TORSDOF 4
