REMARK  6 active torsions:
REMARK  status: ('A' for Active; 'I' for Inactive)
REMARK    1  A    between atoms: C1_1  and  C2_2 
REMARK    2  A    between atoms: C2_2  and  C3_4 
REMARK    3  A    between atoms: C2_2  and  O3_7 
REMARK    4  A    between atoms: O3_7  and  C4_8 
REMARK    5  A    between atoms: C4_8  and  C5_9 
REMARK    6  A    between atoms: C5_9  and  C6_10 
ROOT
ATOM      1  C4  <0> d          -3.551   1.512   0.810  0.00  0.00     0.024 C 
ATOM      2  H5  <0> d          -3.274   1.818   1.829  0.00  0.00     0.074 H 
ATOM      3  H6  <0> d          -3.941   2.382   0.260  0.00  0.00     0.074 H 
ENDROOT
BRANCH   1   4
ATOM      4  O3  <0> d          -2.400   1.000   0.136  0.00  0.00    -0.375 OA
BRANCH   4   5
ATOM      5  C2  <0> d          -1.329   1.940   0.019  0.00  0.00     0.118 C 
ATOM      6  H1  <0> d          -1.397   2.594   0.901  0.00  0.00     0.099 H 
BRANCH   5   7
ATOM      7  C1  <0> d          -1.483   2.728  -1.284  0.00  0.00    -0.043 C 
ATOM      8  H2  <0> d          -2.443   3.265  -1.276  0.00  0.00     0.031 H 
ATOM      9  H3  <0> d          -1.458   2.034  -2.137  0.00  0.00     0.031 H 
ATOM     10  H4  <0> d          -0.659   3.451  -1.374  0.00  0.00     0.031 H 
ENDBRANCH   5   7
BRANCH   5  11
ATOM     11  C3  <0> d          -0.014   1.204   0.009  0.00  0.00     0.202 C 
ATOM     12  O1  <0> d           0.002  -0.004   0.002  0.00  0.00    -0.646 OA
ATOM     13  O2  <0> d           1.139   1.891   0.001  0.00  0.00    -0.646 OA
ENDBRANCH   5  11
ENDBRANCH   4   5
ENDBRANCH   1   4
BRANCH   1  14
ATOM     14  C5  <0> d          -4.628   0.427   0.877  0.00  0.00    -0.031 C 
ATOM     15  H7  <0> d          -4.905   0.122  -0.143  0.00  0.00     0.042 H 
ATOM     16  H8  <0> d          -4.238  -0.442   1.427  0.00  0.00     0.042 H 
BRANCH  14  17
ATOM     17  C6  <0> d          -5.842   0.967   1.587  0.00  0.00    -0.110 C 
ATOM     18  C7  <0> d          -7.015   0.922   1.006  0.00  0.00    -0.125 C 
ATOM     19  H10 <0> d          -7.902   1.316   1.524  0.00  0.00     0.066 H 
ATOM     20  H11 <0> d          -7.114   0.489  -0.001  0.00  0.00     0.066 H 
ATOM     21  H9  <0> d          -5.744   1.400   2.594  0.00  0.00     0.075 H 
ENDBRANCH  14  17
ENDBRANCH   1  14
TORSDOF 6
