REMARK  0 active torsions:
REMARK  status: ('A' for Active; 'I' for Inactive)
ROOT
ATOM      1  C1  <0> d          -0.016   1.317   0.009  0.00  0.00     0.044 A 
ATOM      2  C2  <0> d           1.189   2.010   0.002  0.00  0.00     0.151 A 
ATOM      3  C3  <0> d           2.374   1.282  -0.014  0.00  0.00     0.044 A 
ATOM      4  N1  <0> d           2.318  -0.037  -0.020  0.00  0.00    -0.229 NA
ATOM      5  C4  <0> d           1.151  -0.667  -0.013  0.00  0.00     0.231 A 
ATOM      6  N2  <0> d           0.002  -0.004   0.002  0.00  0.00    -0.229 NA
ATOM      7  C5  <0> d           1.130  -2.099  -0.020  0.00  0.00     0.141 C 
ATOM      8  N3  <0> d           1.113  -3.235  -0.026  0.00  0.00    -0.188 NA
ATOM      9  F1  <0> d           1.209   3.361   0.008  0.00  0.00    -0.203 F 
ATOM     10  H1  <0> d          -0.954   1.851   0.026  0.00  0.00     0.119 H 
ATOM     11  H2  <0> d           3.327   1.789  -0.021  0.00  0.00     0.119 H 
ENDROOT
TORSDOF 0
