REMARK  2 active torsions:
REMARK  status: ('A' for Active; 'I' for Inactive)
REMARK    1  A    between atoms: C1_1  and  N1_2 
REMARK    2  A    between atoms: C5_7  and  C6_9 
ROOT
ATOM      1  N1  <0> d          -1.187   1.877   0.018  0.00  0.00    -0.238 N 
ATOM      2  C2  <0> d          -0.015   1.216   0.009  0.00  0.00     0.263 A 
ATOM      3  O1  <0> d           0.002  -0.004   0.002  0.00  0.00    -0.267 OA
ATOM      4  C3  <0> d           1.196   1.943   0.001  0.00  0.00    -0.013 A 
ATOM      5  C4  <0> d           1.124   3.304   0.009  0.00  0.00    -0.041 A 
ATOM      6  C5  <0> d          -0.158   3.907   0.024  0.00  0.00     0.153 A 
ATOM      7  N2  <0> d          -1.240   3.160   0.029  0.00  0.00    -0.163 NA
ATOM      8  H4  <0> d           2.150   1.437  -0.011  0.00  0.00     0.092 H 
ATOM      9  H5  <0> d           2.020   3.907   0.004  0.00  0.00     0.087 H 
ENDROOT
BRANCH   1  10
ATOM     10  C1  <0> d          -2.436   1.113   0.020  0.00  0.00     0.006 C 
ATOM     11  H1  <0> d          -2.741   0.918   1.048  0.00  0.00     0.059 H 
ATOM     12  H2  <0> d          -3.213   1.685  -0.487  0.00  0.00     0.059 H 
ATOM     13  H3  <0> d          -2.284   0.166  -0.499  0.00  0.00     0.059 H 
ENDBRANCH   1  10
BRANCH   6  14
ATOM     14  C6  <0> d          -0.279   5.379   0.032  0.00  0.00     0.230 C 
ATOM     15  O2  <0> d           0.719   6.071   0.026  0.00  0.00    -0.643 OA
ATOM     16  O3  <0> d          -1.498   5.955   0.046  0.00  0.00    -0.643 OA
ENDBRANCH   6  14
TORSDOF 2
