REMARK  3 active torsions:
REMARK  status: ('A' for Active; 'I' for Inactive)
REMARK    1  A    between atoms: C3_3  and  C6_7 
REMARK       I    between atoms: C6_7  and  N2_9 
REMARK    2  A    between atoms: N2_9  and  C7_10 
REMARK    3  A    between atoms: C7_10  and  O2_11 
ROOT
ATOM      1  C1  <0> d          -0.017   1.379   0.010  0.00  0.00    -0.065 A 
ATOM      2  C2  <0> d           1.181   2.073   0.002  0.00  0.00    -0.065 A 
ATOM      3  C3  <0> d           2.373   1.339  -0.013  0.00  0.00     0.049 A 
ATOM      4  C4  <0> d           2.306  -0.055  -0.020  0.00  0.00     0.017 A 
ATOM      5  N1  <0> d           1.141  -0.670  -0.013  0.00  0.00    -0.272 NA
ATOM      6  C5  <0> d           0.002  -0.004   0.002  0.00  0.00     0.002 A 
ATOM      7  H1  <0> d          -0.956   1.912   0.026  0.00  0.00     0.085 H 
ATOM      8  H2  <0> d           1.195   3.152   0.007  0.00  0.00     0.085 H 
ATOM      9  H3  <0> d           3.217  -0.635  -0.032  0.00  0.00     0.116 H 
ATOM     10  H4  <0> d          -0.931  -0.548   0.008  0.00  0.00     0.114 H 
ENDROOT
BRANCH   3  11
ATOM     11  C6  <0> d           3.680   2.028  -0.023  0.00  0.00     0.254 C 
ATOM     12  O1  <0> d           3.727   3.243  -0.017  0.00  0.00    -0.268 OA
ATOM     13  N2  <0> d           4.821   1.310  -0.037  0.00  0.00    -0.336 N 
ATOM     14  H5  <0> d           4.784   0.341  -0.042  0.00  0.00     0.164 HD
BRANCH  13  15
ATOM     15  C7  <0> d           6.117   1.994  -0.047  0.00  0.00     0.077 C 
ATOM     16  H6  <0> d           6.825   1.422  -0.646  0.00  0.00     0.106 H 
ATOM     17  H7  <0> d           5.999   2.990  -0.475  0.00  0.00     0.106 H 
BRANCH  15  18
ATOM     18  O2  <0> d           6.606   2.106   1.291  0.00  0.00    -0.382 OA
ATOM     19  H8  <0> d           7.462   2.549   1.361  0.00  0.00     0.211 HD
ENDBRANCH  15  18
ENDBRANCH  13  15
ENDBRANCH   3  11
TORSDOF 3
