REMARK  1 active torsions:
REMARK  status: ('A' for Active; 'I' for Inactive)
REMARK    1  A    between atoms: C1_1  and  N1_2 
ROOT
ATOM      1  N1  <0> d          -0.700   1.560   1.217  0.00  0.00    -0.283 NA
ATOM      2  C2  <0> d          -2.136   1.261   1.156  0.00  0.00     0.004 C 
ATOM      3  C3  <0> d          -2.776   1.662   2.491  0.00  0.00     0.037 C 
ATOM      4  O1  <0> d          -2.200   0.848   3.518  0.00  0.00    -0.348 OA
ATOM      5  C4  <0> d          -0.847   0.699   3.493  0.00  0.00     0.090 A 
ATOM      6  C5  <0> d          -0.102   1.041   2.369  0.00  0.00     0.044 A 
ATOM      7  C6  <0> d           1.278   0.867   2.383  0.00  0.00    -0.060 A 
ATOM      8  C7  <0> d           1.904   0.361   3.505  0.00  0.00    -0.081 A 
ATOM      9  C8  <0> d           1.162   0.025   4.622  0.00  0.00    -0.080 A 
ATOM     10  C9  <0> d          -0.210   0.194   4.617  0.00  0.00    -0.049 A 
ATOM     11  H4  <0> d          -2.594   1.828   0.346  0.00  0.00     0.059 H 
ATOM     12  H5  <0> d          -2.281   0.194   0.987  0.00  0.00     0.059 H 
ATOM     13  H6  <0> d          -3.852   1.496   2.449  0.00  0.00     0.076 H 
ATOM     14  H7  <0> d          -2.573   2.713   2.697  0.00  0.00     0.076 H 
ATOM     15  H8  <0> d           1.861   1.128   1.512  0.00  0.00     0.086 H 
ATOM     16  H9  <0> d           2.976   0.227   3.510  0.00  0.00     0.083 H 
ATOM     17  H10 <0> d           1.654  -0.369   5.498  0.00  0.00     0.083 H 
ATOM     18  H11 <0> d          -0.788  -0.069   5.490  0.00  0.00     0.087 H 
ENDROOT
BRANCH   1  19
ATOM     19  C1  <0> d          -0.013   1.086   0.008  0.00  0.00    -0.029 C 
ATOM     20  H1  <0> d           0.002  -0.004   0.002  0.00  0.00     0.048 H 
ATOM     21  H2  <0> d           1.010   1.463   0.000  0.00  0.00     0.048 H 
ATOM     22  H3  <0> d          -0.540   1.447  -0.875  0.00  0.00     0.048 H 
ENDBRANCH   1  19
TORSDOF 1
