REMARK  1 active torsions:
REMARK  status: ('A' for Active; 'I' for Inactive)
REMARK    1  A    between atoms: N1_9  and  N2_10 
ROOT
ATOM      1  C1  <0> d          -0.634  -2.308  -0.005  0.00  0.00    -0.082 A 
ATOM      2  C2  <0> d           0.704  -2.678  -0.020  0.00  0.00    -0.081 A 
ATOM      3  C3  <0> d           1.697  -1.724  -0.024  0.00  0.00    -0.054 A 
ATOM      4  C4  <0> d           1.359  -0.374  -0.013  0.00  0.00     0.065 A 
ATOM      5  C5  <0> d           0.002  -0.004   0.002  0.00  0.00    -0.006 A 
ATOM      6  C6  <0> d          -0.989  -0.988   0.006  0.00  0.00    -0.071 A 
ATOM      7  C7  <0> d          -0.018   1.461   0.010  0.00  0.00    -0.054 A 
ATOM      8  C8  <0> d           1.260   1.871   0.000  0.00  0.00     0.003 A 
ATOM      9  N1  <0> d           2.097   0.788  -0.014  0.00  0.00    -0.273 N 
ATOM     10  H1  <0> d          -1.401  -3.068  -0.003  0.00  0.00     0.083 H 
ATOM     11  H2  <0> d           0.969  -3.725  -0.029  0.00  0.00     0.083 H 
ATOM     12  H3  <0> d           2.735  -2.022  -0.036  0.00  0.00     0.087 H 
ATOM     13  H4  <0> d          -2.031  -0.707   0.017  0.00  0.00     0.084 H 
ATOM     14  H5  <0> d          -0.895   2.091   0.018  0.00  0.00     0.087 H 
ATOM     15  H6  <0> d           1.581   2.902   0.002  0.00  0.00     0.114 H 
ENDROOT
BRANCH   9  16
ATOM     16  N2  <0> d           3.462   0.851  -0.026  0.00  0.00    -0.339 N 
ATOM     17  H7  <0> d           3.967   1.828  -0.026  0.00  0.00     0.177 HD
ATOM     18  H8  <0> d           4.055  -0.075  -0.037  0.00  0.00     0.177 HD
ENDBRANCH   9  16
TORSDOF 1
