REMARK  9 active torsions:
REMARK  status: ('A' for Active; 'I' for Inactive)
REMARK    1  A    between atoms: C1_1  and  C2_2 
REMARK    2  A    between atoms: C2_2  and  C3_3 
REMARK    3  A    between atoms: C3_3  and  C4_4 
REMARK    4  A    between atoms: C4_4  and  C5_5 
REMARK    5  A    between atoms: C5_5  and  C6_6 
REMARK    6  A    between atoms: C5_5  and  C8_8 
REMARK    7  A    between atoms: C5_5  and  O2_10 
REMARK    8  A    between atoms: C6_6  and  C7_7 
REMARK    9  A    between atoms: C8_8  and  O1_9 
ROOT
ATOM      1  C5  <0> d          -0.017   1.425   0.010  0.00  0.00     0.079 C 
ENDROOT
BRANCH   1   2
ATOM      2  C4  <0> d          -0.757   1.932  -1.230  0.00  0.00    -0.034 C 
ATOM      3  H8  <0> d          -0.696   3.019  -1.270  0.00  0.00     0.037 H 
ATOM      4  H9  <0> d          -0.300   1.508  -2.124  0.00  0.00     0.037 H 
BRANCH   2   5
ATOM      5  C3  <0> d          -2.225   1.506  -1.157  0.00  0.00    -0.063 C 
ATOM      6  H6  <0> d          -2.287   0.419  -1.116  0.00  0.00     0.033 H 
ATOM      7  H7  <0> d          -2.682   1.930  -0.262  0.00  0.00     0.033 H 
BRANCH   5   8
ATOM      8  C2  <0> d          -2.965   2.013  -2.396  0.00  0.00    -0.068 C 
ATOM      9  H4  <0> d          -2.904   3.101  -2.437  0.00  0.00     0.032 H 
ATOM     10  H5  <0> d          -2.508   1.590  -3.291  0.00  0.00     0.032 H 
BRANCH   8  11
ATOM     11  C1  <0> d          -4.433   1.588  -2.323  0.00  0.00    -0.077 C 
ATOM     12  H1  <0> d          -4.960   1.949  -3.206  0.00  0.00     0.027 H 
ATOM     13  H2  <0> d          -4.495   0.501  -2.283  0.00  0.00     0.027 H 
ATOM     14  H3  <0> d          -4.890   2.012  -1.429  0.00  0.00     0.027 H 
ENDBRANCH   8  11
ENDBRANCH   5   8
ENDBRANCH   2   5
ENDBRANCH   1   2
BRANCH   1  15
ATOM     15  C6  <0> d           1.418   1.954  -0.001  0.00  0.00    -0.038 C 
ATOM     16  H10 <0> d           1.928   1.603  -0.898  0.00  0.00     0.036 H 
ATOM     17  H11 <0> d           1.403   3.044   0.005  0.00  0.00     0.036 H 
BRANCH  15  18
ATOM     18  C7  <0> d           2.158   1.448   1.238  0.00  0.00    -0.074 C 
ATOM     19  H12 <0> d           1.648   1.799   2.135  0.00  0.00     0.027 H 
ATOM     20  H13 <0> d           2.173   0.358   1.232  0.00  0.00     0.027 H 
ATOM     21  H14 <0> d           3.181   1.825   1.231  0.00  0.00     0.027 H 
ENDBRANCH  15  18
ENDBRANCH   1  15
BRANCH   1  22
ATOM     22  C8  <0> d          -0.733   1.918   1.269  0.00  0.00     0.045 C 
ATOM     23  H15 <0> d          -1.756   1.541   1.276  0.00  0.00     0.078 H 
ATOM     24  H16 <0> d          -0.206   1.557   2.152  0.00  0.00     0.078 H 
BRANCH  22  25
ATOM     25  O1  <0> d          -0.753   3.347   1.276  0.00  0.00    -0.398 OA
ATOM     26  H17 <0> d          -1.192   3.730   2.048  0.00  0.00     0.209 HD
ENDBRANCH  22  25
ENDBRANCH   1  22
BRANCH   1  27
ATOM     27  O2  <0> d           0.002  -0.004   0.002  0.00  0.00    -0.388 OA
ATOM     28  H18 <0> d           0.442  -0.387  -0.769  0.00  0.00     0.210 HD
ENDBRANCH   1  27
TORSDOF 9
