REMARK  3 active torsions:
REMARK  status: ('A' for Active; 'I' for Inactive)
REMARK    1  A    between atoms: C1_1  and  C2_2 
REMARK    2  A    between atoms: C7_7  and  O1_8 
REMARK    3  A    between atoms: O1_8  and  C8_9 
REMARK       I    between atoms: C8_9  and  N1_11 
ROOT
ATOM      1  C2  <0> d          -0.018  -0.005   0.002  0.00  0.00    -0.028 A 
ATOM      2  C3  <0> d          -0.014  -0.689  -1.198  0.00  0.00    -0.074 A 
ATOM      3  C4  <0> d           0.024  -2.071  -1.206  0.00  0.00    -0.082 A 
ATOM      4  C5  <0> d           0.059  -2.772  -0.014  0.00  0.00    -0.080 A 
ATOM      5  C6  <0> d           0.055  -2.092   1.188  0.00  0.00    -0.050 A 
ATOM      6  C7  <0> d           0.023  -0.705   1.199  0.00  0.00     0.086 A 
ATOM      7  H4  <0> d          -0.042  -0.145  -2.130  0.00  0.00     0.084 H 
ATOM      8  H5  <0> d           0.026  -2.605  -2.145  0.00  0.00     0.083 H 
ATOM      9  H6  <0> d           0.088  -3.851  -0.024  0.00  0.00     0.083 H 
ATOM     10  H7  <0> d           0.082  -2.639   2.119  0.00  0.00     0.087 H 
ENDROOT
BRANCH   6  11
ATOM     11  O1  <0> d           0.025  -0.033   2.381  0.00  0.00    -0.261 OA
BRANCH  11  12
ATOM     12  C8  <0> d           1.210   0.380   2.871  0.00  0.00     0.363 C 
ATOM     13  O2  <0> d           2.223   0.230   2.218  0.00  0.00    -0.238 OA
ATOM     14  N1  <0> d           1.270   0.960   4.087  0.00  0.00    -0.345 N 
ATOM     15  H8  <0> d           0.461   1.079   4.608  0.00  0.00     0.161 HD
ATOM     16  H9  <0> d           2.123   1.257   4.440  0.00  0.00     0.161 HD
ENDBRANCH  11  12
ENDBRANCH   6  11
BRANCH   1  17
ATOM     17  C1  <0> d          -0.060   1.502   0.011  0.00  0.00    -0.049 C 
ATOM     18  H1  <0> d           0.957   1.894  -0.005  0.00  0.00     0.033 H 
ATOM     19  H2  <0> d          -0.600   1.855  -0.868  0.00  0.00     0.033 H 
ATOM     20  H3  <0> d          -0.568   1.846   0.912  0.00  0.00     0.033 H 
ENDBRANCH   1  17
TORSDOF 3
