REMARK  8 active torsions:
REMARK  status: ('A' for Active; 'I' for Inactive)
REMARK    1  A    between atoms: C1_1  and  C2_2 
REMARK    2  A    between atoms: C2_2  and  C3_3 
REMARK    3  A    between atoms: C2_2  and  C4_4 
REMARK    4  A    between atoms: C4_4  and  C5_5 
REMARK    5  A    between atoms: C5_5  and  C6_6 
REMARK    6  A    between atoms: C6_6  and  C7_8 
REMARK    7  A    between atoms: C7_8  and  C8_9 
REMARK    8  A    between atoms: C7_8  and  C9_10 
ROOT
ATOM      1  C5  <0> d          -0.064   0.971   2.503  0.00  0.00    -0.009 C 
ATOM      2  H10 <0> d          -0.121  -0.026   2.456  0.00  0.00     0.044 H 
ATOM      3  H11 <0> d           0.983   1.274   2.539  0.00  0.00     0.044 H 
ENDROOT
BRANCH   1   4
ATOM      4  C4  <0> d          -0.729   1.579   1.267  0.00  0.00    -0.056 C 
ATOM      5  H8  <0> d          -0.666   2.666   1.318  0.00  0.00     0.034 H 
ATOM      6  H9  <0> d          -1.776   1.277   1.232  0.00  0.00     0.034 H 
BRANCH   4   7
ATOM      7  C2  <0> d          -0.013   1.086   0.008  0.00  0.00    -0.061 C 
ATOM      8  H4  <0> d           0.002  -0.004   0.002  0.00  0.00     0.038 H 
BRANCH   7   9
ATOM      9  C1  <0> d           1.423   1.615  -0.003  0.00  0.00    -0.073 C 
ATOM     10  H1  <0> d           1.950   1.254   0.880  0.00  0.00     0.028 H 
ATOM     11  H2  <0> d           1.933   1.264  -0.900  0.00  0.00     0.028 H 
ATOM     12  H3  <0> d           1.408   2.705   0.003  0.00  0.00     0.028 H 
ENDBRANCH   7   9
BRANCH   7  13
ATOM     13  C3  <0> d          -0.753   1.593  -1.232  0.00  0.00    -0.073 C 
ATOM     14  H5  <0> d          -0.242   1.241  -2.128  0.00  0.00     0.028 H 
ATOM     15  H6  <0> d          -1.775   1.215  -1.224  0.00  0.00     0.028 H 
ATOM     16  H7  <0> d          -0.767   2.683  -1.226  0.00  0.00     0.028 H 
ENDBRANCH   7  13
ENDBRANCH   4   7
ENDBRANCH   1   4
BRANCH   1  17
ATOM     17  C6  <0> d          -0.769   1.457   3.743  0.00  0.00     0.130 C 
ATOM     18  O1  <0> d          -1.707   2.212   3.648  0.00  0.00    -0.298 OA
BRANCH  17  19
ATOM     19  C7  <0> d          -0.304   1.002   5.102  0.00  0.00    -0.003 C 
ATOM     20  H12 <0> d           0.092   0.086   5.029  0.00  0.00     0.050 H 
BRANCH  19  21
ATOM     21  C8  <0> d           0.752   1.973   5.632  0.00  0.00    -0.067 C 
ATOM     22  H13 <0> d           1.089   1.643   6.615  0.00  0.00     0.028 H 
ATOM     23  H14 <0> d           1.600   1.997   4.947  0.00  0.00     0.028 H 
ATOM     24  H15 <0> d           0.321   2.971   5.712  0.00  0.00     0.028 H 
ENDBRANCH  19  21
BRANCH  19  25
ATOM     25  C9  <0> d          -1.494   0.968   6.064  0.00  0.00    -0.067 C 
ATOM     26  H16 <0> d          -2.247   0.275   5.686  0.00  0.00     0.028 H 
ATOM     27  H17 <0> d          -1.158   0.638   7.046  0.00  0.00     0.028 H 
ATOM     28  H18 <0> d          -1.925   1.965   6.143  0.00  0.00     0.028 H 
ENDBRANCH  19  25
ENDBRANCH  17  19
ENDBRANCH   1  17
TORSDOF 8
