REMARK  1 active torsions:
REMARK  status: ('A' for Active; 'I' for Inactive)
REMARK    1  A    between atoms: C1_1  and  C2_2 
ROOT
ATOM      1  C2  <0> d          -0.718   1.572   1.248  0.00  0.00     0.034 A 
ATOM      2  C3  <0> d           0.013   1.802   2.400  0.00  0.00    -0.058 A 
ATOM      3  C4  <0> d          -0.636   2.249   3.537  0.00  0.00    -0.056 A 
ATOM      4  C5  <0> d          -2.020   2.452   3.476  0.00  0.00     0.102 A 
ATOM      5  C6  <0> d          -2.687   2.196   2.273  0.00  0.00     0.231 A 
ATOM      6  N1  <0> d          -2.021   1.776   1.215  0.00  0.00    -0.224 NA
ATOM      7  F1  <0> d          -4.022   2.386   2.193  0.00  0.00    -0.182 F 
ATOM      8  C7  <0> d          -2.740   2.913   4.625  0.00  0.00     0.104 C 
ATOM      9  N2  <0> d          -3.311   3.280   5.536  0.00  0.00    -0.191 NA
ATOM     10  H4  <0> d           1.080   1.635   2.410  0.00  0.00     0.086 H 
ATOM     11  H5  <0> d          -0.088   2.436   4.449  0.00  0.00     0.086 H 
ENDROOT
BRANCH   1  12
ATOM     12  C1  <0> d          -0.013   1.086   0.008  0.00  0.00    -0.035 C 
ATOM     13  H1  <0> d           0.002  -0.004   0.002  0.00  0.00     0.035 H 
ATOM     14  H2  <0> d           1.010   1.463   0.000  0.00  0.00     0.035 H 
ATOM     15  H3  <0> d          -0.540   1.447  -0.875  0.00  0.00     0.035 H 
ENDBRANCH   1  12
TORSDOF 1
