REMARK  8 active torsions:
REMARK  status: ('A' for Active; 'I' for Inactive)
REMARK    1  A    between atoms: C1_1  and  C2_2 
REMARK    2  A    between atoms: C2_2  and  C3_3 
REMARK    3  A    between atoms: C3_3  and  C4_4 
REMARK    4  A    between atoms: C4_4  and  C5_5 
REMARK    5  A    between atoms: C5_5  and  C6_7 
REMARK    6  A    between atoms: C5_5  and  C9_10 
REMARK    7  A    between atoms: C6_7  and  C7_8 
REMARK    8  A    between atoms: C7_8  and  C8_9 
ROOT
ATOM      1  C5  <0> d          -0.729   1.579   1.267  0.00  0.00     0.030 C 
ATOM      2  H1  <0> d          -1.776   1.277   1.232  0.00  0.00     0.056 H 
ENDROOT
BRANCH   1   3
ATOM      3  C4  <0> d          -0.013   1.086   0.008  0.00  0.00    -0.052 C 
ATOM      4  H9  <0> d           0.002  -0.004   0.002  0.00  0.00     0.034 H 
ATOM      5  H10 <0> d           1.010   1.463   0.000  0.00  0.00     0.034 H 
BRANCH   3   6
ATOM      6  C3  <0> d          -0.753   1.593  -1.232  0.00  0.00    -0.065 C 
ATOM      7  H7  <0> d          -1.775   1.215  -1.224  0.00  0.00     0.033 H 
ATOM      8  H8  <0> d          -0.767   2.683  -1.226  0.00  0.00     0.033 H 
BRANCH   6   9
ATOM      9  C2  <0> d          -0.037   1.099  -2.490  0.00  0.00    -0.069 C 
ATOM     10  H5  <0> d           0.986   1.476  -2.498  0.00  0.00     0.032 H 
ATOM     11  H6  <0> d          -0.022   0.009  -2.496  0.00  0.00     0.032 H 
BRANCH   9  12
ATOM     12  C1  <0> d          -0.777   1.606  -3.730  0.00  0.00    -0.077 C 
ATOM     13  H2  <0> d          -1.799   1.229  -3.722  0.00  0.00     0.027 H 
ATOM     14  H3  <0> d          -0.791   2.696  -3.724  0.00  0.00     0.027 H 
ATOM     15  H4  <0> d          -0.266   1.254  -4.627  0.00  0.00     0.027 H 
ENDBRANCH   9  12
ENDBRANCH   6   9
ENDBRANCH   3   6
ENDBRANCH   1   3
BRANCH   1  16
ATOM     16  C6  <0> d          -0.064   0.971   2.503  0.00  0.00    -0.053 C 
ATOM     17  H11 <0> d          -0.047  -0.115   2.410  0.00  0.00     0.034 H 
ATOM     18  H12 <0> d           0.957   1.344   2.587  0.00  0.00     0.034 H 
BRANCH  16  19
ATOM     19  C7  <0> d          -0.855   1.364   3.753  0.00  0.00    -0.068 C 
ATOM     20  H13 <0> d          -0.871   2.450   3.846  0.00  0.00     0.032 H 
ATOM     21  H14 <0> d          -1.875   0.991   3.669  0.00  0.00     0.032 H 
BRANCH  19  22
ATOM     22  C8  <0> d          -0.190   0.756   4.989  0.00  0.00    -0.076 C 
ATOM     23  H15 <0> d          -0.753   1.036   5.880  0.00  0.00     0.027 H 
ATOM     24  H16 <0> d          -0.173  -0.330   4.896  0.00  0.00     0.027 H 
ATOM     25  H17 <0> d           0.831   1.129   5.073  0.00  0.00     0.027 H 
ENDBRANCH  19  22
ENDBRANCH  16  19
ENDBRANCH   1  16
BRANCH   1  26
ATOM     26  C9  <0> d          -0.642   3.082   1.337  0.00  0.00     0.177 C 
ATOM     27  O1  <0> d          -0.067   3.696   0.470  0.00  0.00    -0.648 OA
ATOM     28  O2  <0> d          -1.204   3.739   2.364  0.00  0.00    -0.648 OA
ENDBRANCH   1  26
TORSDOF 8
