REMARK  2 active torsions:
REMARK  status: ('A' for Active; 'I' for Inactive)
REMARK    1  A    between atoms: C2_2  and  C3_3 
REMARK    2  A    between atoms: C3_3  and  C4_4 
ROOT
ATOM      1  C4  <0> d          -0.013   1.086   0.008  0.00  0.00     0.015 C 
ATOM      2  H1  <0> d           0.335   0.065   0.167  0.00  0.00     0.072 H 
ATOM      3  C5  <0> d           1.181   1.995  -0.290  0.00  0.00    -0.046 C 
ATOM      4  C6  <0> d           0.883   3.428   0.108  0.00  0.00    -0.063 C 
ATOM      5  C7  <0> d          -0.197   4.086  -0.732  0.00  0.00    -0.057 C 
ATOM      6  C8  <0> d          -1.554   3.421  -0.487  0.00  0.00     0.009 C 
ATOM      7  C9  <0> d          -1.664   2.208  -1.388  0.00  0.00     0.217 C 
ATOM      8  O1  <0> d          -2.421   2.225  -2.334  0.00  0.00    -0.274 OA
ATOM      9  N1  <0> d          -0.931   1.121  -1.142  0.00  0.00    -0.356 N 
ATOM     10  H7  <0> d           2.049   1.641   0.267  0.00  0.00     0.036 H 
ATOM     11  H8  <0> d           1.402   1.958  -1.357  0.00  0.00     0.036 H 
ATOM     12  H9  <0> d           0.568   3.441   1.152  0.00  0.00     0.033 H 
ATOM     13  H10 <0> d           1.798   4.013   0.015  0.00  0.00     0.033 H 
ATOM     14  H11 <0> d          -0.263   5.142  -0.470  0.00  0.00     0.033 H 
ATOM     15  H12 <0> d           0.062   3.993  -1.786  0.00  0.00     0.033 H 
ATOM     16  H13 <0> d          -1.628   3.111   0.555  0.00  0.00     0.047 H 
ATOM     17  H14 <0> d          -2.354   4.124  -0.721  0.00  0.00     0.047 H 
ATOM     18  H15 <0> d          -1.003   0.350  -1.725  0.00  0.00     0.162 HD
ENDROOT
BRANCH   1  19
ATOM     19  C3  <0> d          -0.736   1.583   1.262  0.00  0.00    -0.032 C 
ATOM     20  H5  <0> d          -0.601   2.660   1.355  0.00  0.00     0.041 H 
ATOM     21  H6  <0> d          -1.798   1.354   1.183  0.00  0.00     0.041 H 
BRANCH  19  22
ATOM     22  C2  <0> d          -0.163   0.898   2.476  0.00  0.00    -0.110 C 
ATOM     23  C1  <0> d           0.297   1.610   3.474  0.00  0.00    -0.125 C 
ATOM     24  H2  <0> d           0.266   2.689   3.427  0.00  0.00     0.066 H 
ATOM     25  H3  <0> d           0.707   1.119   4.344  0.00  0.00     0.066 H 
ATOM     26  H4  <0> d          -0.133  -0.181   2.523  0.00  0.00     0.075 H 
ENDBRANCH  19  22
ENDBRANCH   1  19
TORSDOF 2
