REMARK  2 active torsions:
REMARK  status: ('A' for Active; 'I' for Inactive)
REMARK    1  A    between atoms: C1_1  and  O1_2 
REMARK    2  A    between atoms: O1_2  and  C2_3 
ROOT
ATOM      1  C2  <0> d           0.605  -0.606  -1.054  0.00  0.00     0.165 A 
ATOM      2  C3  <0> d           0.650  -1.996  -1.120  0.00  0.00    -0.032 A 
ATOM      3  C4  <0> d           1.266  -2.604  -2.200  0.00  0.00    -0.076 A 
ATOM      4  C5  <0> d           1.820  -1.801  -3.185  0.00  0.00    -0.044 A 
ATOM      5  C6  <0> d           1.740  -0.417  -3.058  0.00  0.00     0.139 A 
ATOM      6  N1  <0> d           1.137   0.133  -2.009  0.00  0.00    -0.214 NA
ATOM      7  C7  <0> d           2.309   0.423  -4.069  0.00  0.00     0.119 C 
ATOM      8  N2  <0> d           2.760   1.089  -4.872  0.00  0.00    -0.190 NA
ATOM      9  H4  <0> d           0.209  -2.594  -0.336  0.00  0.00     0.090 H 
ATOM     10  H5  <0> d           1.314  -3.680  -2.273  0.00  0.00     0.083 H 
ATOM     11  H6  <0> d           2.308  -2.245  -4.041  0.00  0.00     0.088 H 
ENDROOT
BRANCH   1  12
ATOM     12  O1  <0> d           0.002  -0.004   0.002  0.00  0.00    -0.339 OA
BRANCH  12  13
ATOM     13  C1  <0> d          -0.017   1.425   0.010  0.00  0.00     0.012 C 
ATOM     14  H1  <0> d           1.005   1.802   0.002  0.00  0.00     0.067 H 
ATOM     15  H2  <0> d          -0.544   1.786  -0.873  0.00  0.00     0.067 H 
ATOM     16  H3  <0> d          -0.527   1.776   0.907  0.00  0.00     0.067 H 
ENDBRANCH  12  13
ENDBRANCH   1  12
TORSDOF 2
