REMARK  3 active torsions:
REMARK  status: ('A' for Active; 'I' for Inactive)
REMARK    1  A    between atoms: C1_1  and  C2_2 
REMARK    2  A    between atoms: C3_3  and  C6_8 
REMARK    3  A    between atoms: C4_6  and  C5_7 
ROOT
ATOM      1  C2  <0> d          -0.929   2.860   1.609  0.00  0.00    -0.004 A 
ATOM      2  C3  <0> d          -1.626   2.762   2.835  0.00  0.00     0.066 A 
ATOM      3  N1  <0> d          -1.754   1.491   3.084  0.00  0.00    -0.133 NA
ATOM      4  O1  <0> d          -1.256   0.814   2.214  0.00  0.00    -0.217 OA
ATOM      5  C4  <0> d          -0.718   1.572   1.248  0.00  0.00     0.083 A 
ENDROOT
BRANCH   1   6
ATOM      6  C1  <0> d          -0.518   4.109   0.872  0.00  0.00    -0.047 C 
ATOM      7  H1  <0> d          -1.312   4.406   0.188  0.00  0.00     0.033 H 
ATOM      8  H2  <0> d          -0.337   4.911   1.589  0.00  0.00     0.033 H 
ATOM      9  H3  <0> d           0.394   3.914   0.307  0.00  0.00     0.033 H 
ENDBRANCH   1   6
BRANCH   5  10
ATOM     10  C5  <0> d          -0.013   1.086   0.008  0.00  0.00    -0.029 C 
ATOM     11  H4  <0> d           0.002  -0.004   0.002  0.00  0.00     0.036 H 
ATOM     12  H5  <0> d           1.010   1.463   0.000  0.00  0.00     0.036 H 
ATOM     13  H6  <0> d          -0.540   1.447  -0.875  0.00  0.00     0.036 H 
ENDBRANCH   5  10
BRANCH   2  14
ATOM     14  C6  <0> d          -2.120   3.903   3.686  0.00  0.00    -0.033 C 
ATOM     15  H7  <0> d          -1.344   4.188   4.397  0.00  0.00     0.035 H 
ATOM     16  H8  <0> d          -2.360   4.755   3.049  0.00  0.00     0.035 H 
ATOM     17  H9  <0> d          -3.013   3.592   4.229  0.00  0.00     0.035 H 
ENDBRANCH   2  14
TORSDOF 3
