REMARK  1 active torsions:
REMARK  status: ('A' for Active; 'I' for Inactive)
REMARK    1  A    between atoms: C1_1  and  C2_2 
ROOT
ATOM      1  C2  <0> d           1.095   2.028   0.003  0.00  0.00     0.033 A 
ATOM      2  C3  <0> d           2.341   1.421  -0.013  0.00  0.00    -0.059 A 
ATOM      3  C4  <0> d           2.424   0.042  -0.021  0.00  0.00    -0.067 A 
ATOM      4  C5  <0> d           1.233  -0.688  -0.013  0.00  0.00     0.011 A 
ATOM      5  C6  <0> d           0.907  -2.115  -0.018  0.00  0.00    -0.054 A 
ATOM      6  C7  <0> d          -0.431  -2.209  -0.006  0.00  0.00    -0.020 A 
ATOM      7  N1  <0> d          -0.987  -0.958   0.006  0.00  0.00    -0.350 N 
ATOM      8  H1  <0> d          -1.939  -0.772   0.016  0.00  0.00     0.166 HD
ATOM      9  C8  <0> d           0.002  -0.004   0.002  0.00  0.00     0.138 A 
ATOM     10  N2  <0> d          -0.016   1.322   0.009  0.00  0.00    -0.235 NA
ATOM     11  H5  <0> d           3.239   2.021  -0.018  0.00  0.00     0.086 H 
ATOM     12  H6  <0> d           3.382  -0.458  -0.032  0.00  0.00     0.085 H 
ATOM     13  H7  <0> d           1.610  -2.935  -0.030  0.00  0.00     0.087 H 
ATOM     14  H8  <0> d          -0.988  -3.135  -0.007  0.00  0.00     0.111 H 
ENDROOT
BRANCH   1  15
ATOM     15  C1  <0> d           1.009   3.533   0.011  0.00  0.00    -0.035 C 
ATOM     16  H2  <0> d           0.998   3.890   1.040  0.00  0.00     0.035 H 
ATOM     17  H3  <0> d           1.873   3.949  -0.509  0.00  0.00     0.035 H 
ATOM     18  H4  <0> d           0.096   3.848  -0.493  0.00  0.00     0.035 H 
ENDBRANCH   1  15
TORSDOF 1
