REMARK  2 active torsions:
REMARK  status: ('A' for Active; 'I' for Inactive)
REMARK    1  A    between atoms: C1_1  and  O1_2 
REMARK    2  A    between atoms: O1_2  and  C2_3 
ROOT
ATOM      1  C2  <0> d           1.154   3.119  -0.356  0.00  0.00     0.135 C 
ATOM      2  H1  <0> d           0.966   3.222  -1.424  0.00  0.00     0.129 H 
ATOM      3  C3  <0> d           0.034   3.807   0.437  0.00  0.00    -0.016 C 
ATOM      4  C4  <0> d          -1.301   3.179   0.021  0.00  0.00    -0.044 C 
ATOM      5  C5  <0> d          -1.171   1.680   0.017  0.00  0.00    -0.082 C 
ATOM      6  C6  <0> d          -0.013   1.076   0.008  0.00  0.00     0.012 C 
ATOM      7  O2  <0> d           1.168   1.733   0.000  0.00  0.00    -0.333 OA
ATOM      8  H5  <0> d           0.194   3.658   1.505  0.00  0.00     0.040 H 
ATOM      9  H6  <0> d           0.025   4.873   0.211  0.00  0.00     0.040 H 
ATOM     10  H7  <0> d          -2.078   3.477   0.725  0.00  0.00     0.039 H 
ATOM     11  H8  <0> d          -1.567   3.520  -0.979  0.00  0.00     0.039 H 
ATOM     12  H9  <0> d          -2.070   1.081   0.025  0.00  0.00     0.079 H 
ATOM     13  H10 <0> d           0.002  -0.004   0.002  0.00  0.00     0.122 H 
ENDROOT
BRANCH   1  14
ATOM     14  O1  <0> d           2.411   3.713  -0.028  0.00  0.00    -0.366 OA
BRANCH  14  15
ATOM     15  C1  <0> d           3.492   3.280  -0.857  0.00  0.00     0.007 C 
ATOM     16  H2  <0> d           3.278   3.532  -1.895  0.00  0.00     0.066 H 
ATOM     17  H3  <0> d           4.411   3.777  -0.544  0.00  0.00     0.066 H 
ATOM     18  H4  <0> d           3.612   2.201  -0.762  0.00  0.00     0.066 H 
ENDBRANCH  14  15
ENDBRANCH   1  14
TORSDOF 2
