REMARK  3 active torsions:
REMARK  status: ('A' for Active; 'I' for Inactive)
REMARK    1  A    between atoms: C1_1  and  C2_2 
REMARK    2  A    between atoms: C4_4  and  C7_9 
REMARK    3  A    between atoms: C5_7  and  C6_8 
ROOT
ATOM      1  C2  <0> d          -0.017   1.405   0.010  0.00  0.00    -0.038 A 
ATOM      2  C3  <0> d           0.002  -0.004   0.002  0.00  0.00    -0.054 A 
ATOM      3  C4  <0> d           1.294  -0.390  -0.012  0.00  0.00     0.006 A 
ATOM      4  N1  <0> d           2.073   0.729  -0.014  0.00  0.00    -0.363 N 
ATOM      5  H1  <0> d           3.043   0.742  -0.023  0.00  0.00     0.165 HD
ATOM      6  C5  <0> d           1.264   1.826  -0.000  0.00  0.00     0.011 A 
ATOM      7  H5  <0> d          -0.860  -0.655   0.007  0.00  0.00     0.087 H 
ENDROOT
BRANCH   1   8
ATOM      8  C1  <0> d          -1.244   2.280   0.021  0.00  0.00    -0.049 C 
ATOM      9  H2  <0> d          -1.534   2.486   1.051  0.00  0.00     0.033 H 
ATOM     10  H3  <0> d          -1.025   3.218  -0.490  0.00  0.00     0.033 H 
ATOM     11  H4  <0> d          -2.059   1.769  -0.492  0.00  0.00     0.033 H 
ENDBRANCH   1   8
BRANCH   6  12
ATOM     12  C6  <0> d           1.722   3.261   0.002  0.00  0.00    -0.037 C 
ATOM     13  H6  <0> d           1.842   3.603   1.031  0.00  0.00     0.035 H 
ATOM     14  H7  <0> d           2.675   3.340  -0.520  0.00  0.00     0.035 H 
ATOM     15  H8  <0> d           0.980   3.881  -0.502  0.00  0.00     0.035 H 
ENDBRANCH   6  12
BRANCH   3  16
ATOM     16  C7  <0> d           1.791  -1.813  -0.024  0.00  0.00    -0.037 C 
ATOM     17  H9  <0> d           1.901  -2.151  -1.055  0.00  0.00     0.035 H 
ATOM     18  H10 <0> d           2.756  -1.865   0.480  0.00  0.00     0.035 H 
ATOM     19  H11 <0> d           1.075  -2.452   0.493  0.00  0.00     0.035 H 
ENDBRANCH   3  16
TORSDOF 3
