REMARK  5 active torsions:
REMARK  status: ('A' for Active; 'I' for Inactive)
REMARK    1  A    between atoms: C1_1  and  C2_2 
REMARK    2  A    between atoms: C2_2  and  C3_3 
REMARK    3  A    between atoms: C3_3  and  C4_4 
REMARK    4  A    between atoms: C3_3  and  N2_8 
REMARK    5  A    between atoms: C4_4  and  C5_5 
ROOT
ATOM      1  C3  <0> d          -0.795   1.527  -1.120  0.00  0.00     0.241 C 
ATOM      2  C6  <0> d          -2.153   0.960  -1.077  0.00  0.00     0.101 C 
ATOM      3  N1  <0> d          -3.201   0.523  -1.044  0.00  0.00    -0.195 NA
ENDROOT
BRANCH   1   4
ATOM      4  C2  <0> d          -0.876   3.052  -1.022  0.00  0.00    -0.022 C 
ATOM      5  H4  <0> d          -1.536   3.436  -1.814  0.00  0.00     0.037 H 
ATOM      6  H5  <0> d           0.130   3.480  -1.144  0.00  0.00     0.037 H 
BRANCH   4   7
ATOM      7  C1  <0> d          -1.436   3.447   0.345  0.00  0.00    -0.073 C 
ATOM      8  H1  <0> d          -1.494   4.543   0.415  0.00  0.00     0.027 H 
ATOM      9  H2  <0> d          -0.776   3.063   1.137  0.00  0.00     0.027 H 
ATOM     10  H3  <0> d          -2.442   3.018   0.467  0.00  0.00     0.027 H 
ENDBRANCH   4   7
ENDBRANCH   1   4
BRANCH   1  11
ATOM     11  C4  <0> d          -0.120   1.135  -2.436  0.00  0.00    -0.022 C 
ATOM     12  H6  <0> d          -0.707   1.526  -3.280  0.00  0.00     0.037 H 
ATOM     13  H7  <0> d           0.895   1.558  -2.467  0.00  0.00     0.037 H 
BRANCH  11  14
ATOM     14  C5  <0> d          -0.040  -0.390  -2.533  0.00  0.00    -0.073 C 
ATOM     15  H8  <0> d           0.446  -0.672  -3.479  0.00  0.00     0.027 H 
ATOM     16  H9  <0> d          -1.055  -0.813  -2.501  0.00  0.00     0.027 H 
ATOM     17  H10 <0> d           0.547  -0.781  -1.689  0.00  0.00     0.027 H 
ENDBRANCH  11  14
ENDBRANCH   1  11
BRANCH   1  18
ATOM     18  N2  <0> d          -0.012   1.005   0.008  0.00  0.00     0.102 N 
ATOM     19  H11 <0> d           0.046  -0.091  -0.062  0.00  0.00     0.315 HD
ATOM     20  H12 <0> d           1.003   1.428  -0.024  0.00  0.00     0.315 HD
ENDBRANCH   1  18
TORSDOF 5
