REMARK  5 active torsions:
REMARK  status: ('A' for Active; 'I' for Inactive)
REMARK    1  A    between atoms: C1_1  and  C2_2 
REMARK    2  A    between atoms: C3_4  and  C6_10 
REMARK    3  A    between atoms: N2_5  and  C4_7 
REMARK    4  A    between atoms: C4_7  and  C5_8 
REMARK    5  A    between atoms: C5_8  and  O1_9 
ROOT
ATOM      1  C2  <0> d           0.022  -2.070  -0.686  0.00  0.00     0.144 A 
ATOM      2  N1  <0> d           0.035  -2.052   0.646  0.00  0.00    -0.218 NA
ATOM      3  C3  <0> d           0.023  -0.816   1.074  0.00  0.00     0.120 A 
ATOM      4  N2  <0> d           0.002  -0.004   0.002  0.00  0.00    -0.253 N 
ATOM      5  N3  <0> d          -0.003  -0.840  -1.127  0.00  0.00    -0.156 NA
ENDROOT
BRANCH   4   6
ATOM      6  C4  <0> d          -0.018   1.461   0.010  0.00  0.00     0.038 C 
ATOM      7  H4  <0> d          -0.545   1.822  -0.873  0.00  0.00     0.070 H 
ATOM      8  H5  <0> d          -0.528   1.812   0.907  0.00  0.00     0.070 H 
BRANCH   6   9
ATOM      9  C5  <0> d           1.418   1.990  -0.001  0.00  0.00     0.033 C 
ATOM     10  H6  <0> d           1.945   1.629   0.882  0.00  0.00     0.076 H 
ATOM     11  H7  <0> d           1.928   1.639  -0.898  0.00  0.00     0.076 H 
BRANCH   9  12
ATOM     12  O1  <0> d           1.398   3.419   0.007  0.00  0.00    -0.399 OA
ATOM     13  H8  <0> d           2.276   3.825   0.001  0.00  0.00     0.209 HD
ENDBRANCH   9  12
ENDBRANCH   6   9
ENDBRANCH   4   6
BRANCH   3  14
ATOM     14  C6  <0> d           0.031  -0.377   2.515  0.00  0.00    -0.020 C 
ATOM     15  H9  <0> d          -0.995  -0.285   2.873  0.00  0.00     0.037 H 
ATOM     16  H10 <0> d           0.561  -1.116   3.117  0.00  0.00     0.037 H 
ATOM     17  H11 <0> d           0.533   0.587   2.599  0.00  0.00     0.037 H 
ENDBRANCH   3  14
BRANCH   1  18
ATOM     18  C1  <0> d           0.030  -3.308  -1.545  0.00  0.00    -0.018 C 
ATOM     19  H1  <0> d          -0.996  -3.620  -1.742  0.00  0.00     0.038 H 
ATOM     20  H2  <0> d           0.532  -3.092  -2.489  0.00  0.00     0.038 H 
ATOM     21  H3  <0> d           0.560  -4.107  -1.026  0.00  0.00     0.038 H 
ENDBRANCH   1  18
TORSDOF 5
