REMARK  3 active torsions:
REMARK  status: ('A' for Active; 'I' for Inactive)
REMARK    1  A    between atoms: C1_1  and  C2_2 
REMARK    2  A    between atoms: C2_2  and  C3_3 
REMARK    3  A    between atoms: C3_3  and  C7_10 
ROOT
ATOM      1  C3  <0> d          -0.059   3.864  -0.841  0.00  0.00    -0.000 C 
ATOM      2  C4  <0> d           1.199   2.998  -0.980  0.00  0.00     0.040 C 
ATOM      3  O1  <0> d           1.135   1.923   0.002  0.00  0.00    -0.297 OA
ATOM      4  C5  <0> d          -0.014   1.210   0.009  0.00  0.00     0.406 C 
ATOM      5  O2  <0> d           0.002  -0.004   0.002  0.00  0.00    -0.230 OA
ATOM      6  O3  <0> d          -1.183   1.891   0.018  0.00  0.00    -0.297 OA
ATOM      7  C6  <0> d          -1.295   2.964  -0.956  0.00  0.00     0.040 C 
ATOM      8  H6  <0> d           1.243   2.576  -1.994  0.00  0.00     0.076 H 
ATOM      9  H7  <0> d           2.091   3.616  -0.800  0.00  0.00     0.076 H 
ATOM     10  H8  <0> d          -2.200   3.557  -0.757  0.00  0.00     0.076 H 
ATOM     11  H9  <0> d          -1.348   2.543  -1.971  0.00  0.00     0.076 H 
ENDROOT
BRANCH   1  12
ATOM     12  C2  <0> d          -0.055   4.558   0.523  0.00  0.00    -0.058 C 
ATOM     13  H4  <0> d           0.838   5.194   0.609  0.00  0.00     0.033 H 
ATOM     14  H5  <0> d          -0.043   3.800   1.320  0.00  0.00     0.033 H 
BRANCH  12  15
ATOM     15  C1  <0> d          -1.311   5.421   0.659  0.00  0.00    -0.076 C 
ATOM     16  H1  <0> d          -1.308   5.920   1.640  0.00  0.00     0.027 H 
ATOM     17  H2  <0> d          -2.204   4.785   0.574  0.00  0.00     0.027 H 
ATOM     18  H3  <0> d          -1.323   6.180  -0.138  0.00  0.00     0.027 H 
ENDBRANCH  12  15
ENDBRANCH   1  12
BRANCH   1  19
ATOM     19  C7  <0> d          -0.084   4.915  -1.953  0.00  0.00    -0.065 C 
ATOM     20  H10 <0> d          -0.086   4.412  -2.932  0.00  0.00     0.028 H 
ATOM     21  H11 <0> d           0.807   5.556  -1.872  0.00  0.00     0.028 H 
ATOM     22  H12 <0> d          -0.989   5.531  -1.855  0.00  0.00     0.028 H 
ENDBRANCH   1  19
TORSDOF 3
