REMARK  3 active torsions:
REMARK  status: ('A' for Active; 'I' for Inactive)
REMARK    1  A    between atoms: C1_1  and  C2_2 
REMARK    2  A    between atoms: C5_5  and  N1_10 
REMARK    3  A    between atoms: C6_6  and  C8_8 
ROOT
ATOM      1  C2  <0> d           3.550  -1.317   0.066  0.00  0.00    -0.061 A 
ATOM      2  C3  <0> d           4.775  -0.674  -0.035  0.00  0.00    -0.075 A 
ATOM      3  C4  <0> d           4.837   0.700  -0.133  0.00  0.00    -0.056 A 
ATOM      4  C5  <0> d           3.668   1.452  -0.131  0.00  0.00     0.043 A 
ATOM      5  C6  <0> d           2.427   0.805  -0.029  0.00  0.00     0.067 A 
ATOM      6  C7  <0> d           2.381  -0.589   0.075  0.00  0.00    -0.059 A 
ATOM      7  H4  <0> d           5.686  -1.254  -0.037  0.00  0.00     0.084 H 
ATOM      8  H5  <0> d           5.795   1.193  -0.211  0.00  0.00     0.086 H 
ATOM      9  H6  <0> d           1.431  -1.094   0.159  0.00  0.00     0.086 H 
ENDROOT
BRANCH   1  10
ATOM     10  C1  <0> d           3.499  -2.819   0.172  0.00  0.00    -0.051 C 
ATOM     11  H1  <0> d           3.534  -3.110   1.222  0.00  0.00     0.033 H 
ATOM     12  H2  <0> d           2.574  -3.183  -0.276  0.00  0.00     0.033 H 
ATOM     13  H3  <0> d           4.351  -3.250  -0.353  0.00  0.00     0.033 H 
ENDBRANCH   1  10
BRANCH   5  14
ATOM     14  C8  <0> d           1.180   1.589  -0.025  0.00  0.00     0.211 C 
ATOM     15  O1  <0> d           1.226   2.804  -0.007  0.00  0.00    -0.644 OA
ATOM     16  O2  <0> d          -0.012   0.961  -0.042  0.00  0.00    -0.644 OA
ENDBRANCH   5  14
BRANCH   4  17
ATOM     17  N1  <0> d           3.728   2.836  -0.229  0.00  0.00    -0.398 N 
ATOM     18  H7  <0> d           2.919   3.363  -0.146  0.00  0.00     0.156 HD
ATOM     19  H8  <0> d           4.580   3.275  -0.380  0.00  0.00     0.156 HD
ENDBRANCH   4  17
TORSDOF 3
