REMARK  1 active torsions:
REMARK  status: ('A' for Active; 'I' for Inactive)
REMARK    1  A    between atoms: C1_1  and  C2_2 
ROOT
ATOM      1  C2  <0> d           0.002  -0.004   0.002  0.00  0.00    -0.061 A 
ATOM      2  C3  <0> d           0.006  -0.687  -1.202  0.00  0.00    -0.076 A 
ATOM      3  C4  <0> d           0.024  -2.066  -1.220  0.00  0.00    -0.066 A 
ATOM      4  C5  <0> d           0.039  -2.774  -0.018  0.00  0.00     0.048 A 
ATOM      5  C6  <0> d           0.036  -2.075   1.193  0.00  0.00    -0.017 A 
ATOM      6  C7  <0> d           0.023  -0.700   1.199  0.00  0.00    -0.068 A 
ATOM      7  C8  <0> d           0.056  -3.119   2.281  0.00  0.00     0.054 A 
ATOM      8  O1  <0> d           0.070  -4.392   1.630  0.00  0.00    -0.313 OA
ATOM      9  C9  <0> d           0.060  -4.214   0.298  0.00  0.00     0.294 A 
ATOM     10  O2  <0> d           0.068  -5.108  -0.524  0.00  0.00    -0.259 OA
ATOM     11  H4  <0> d          -0.006  -0.137  -2.131  0.00  0.00     0.084 H 
ATOM     12  H5  <0> d           0.026  -2.596  -2.161  0.00  0.00     0.085 H 
ATOM     13  H6  <0> d           0.025  -0.164   2.136  0.00  0.00     0.085 H 
ATOM     14  H7  <0> d           0.950  -3.003   2.892  0.00  0.00     0.082 H 
ATOM     15  H8  <0> d          -0.836  -3.027   2.901  0.00  0.00     0.082 H 
ENDROOT
BRANCH   1  16
ATOM     16  C1  <0> d          -0.018   1.503   0.010  0.00  0.00    -0.051 C 
ATOM     17  H1  <0> d           1.004   1.880   0.003  0.00  0.00     0.033 H 
ATOM     18  H2  <0> d          -0.545   1.864  -0.873  0.00  0.00     0.033 H 
ATOM     19  H3  <0> d          -0.529   1.854   0.907  0.00  0.00     0.033 H 
ENDBRANCH   1  16
TORSDOF 1
