REMARK  6 active torsions:
REMARK  status: ('A' for Active; 'I' for Inactive)
REMARK    1  A    between atoms: C1_1  and  C2_2 
REMARK    2  A    between atoms: C2_2  and  C3_3 
REMARK    3  A    between atoms: C3_3  and  C4_4 
REMARK    4  A    between atoms: C4_4  and  N1_5 
REMARK    5  A    between atoms: C6_7  and  N3_11 
REMARK    6  A    between atoms: C7_8  and  C8_10 
ROOT
ATOM      1  N1  <0> d           2.072   0.735  -0.014  0.00  0.00    -0.278 N 
ATOM      2  C5  <0> d           1.269   1.832  -0.000  0.00  0.00     0.026 A 
ATOM      3  C6  <0> d          -0.017   1.398   0.010  0.00  0.00     0.069 A 
ATOM      4  C7  <0> d           0.002  -0.004   0.002  0.00  0.00     0.078 A 
ATOM      5  N2  <0> d           1.250  -0.399  -0.012  0.00  0.00    -0.176 NA
ATOM      6  H10 <0> d           1.595   2.861   0.002  0.00  0.00     0.117 H 
ENDROOT
BRANCH   1   7
ATOM      7  C4  <0> d           3.537   0.738  -0.027  0.00  0.00     0.016 C 
ATOM      8  H8  <0> d           3.902   1.771   0.065  0.00  0.00     0.067 H 
ATOM      9  H9  <0> d           3.896   0.305  -0.973  0.00  0.00     0.067 H 
BRANCH   7  10
ATOM     10  C3  <0> d           4.059  -0.094   1.146  0.00  0.00    -0.049 C 
ATOM     11  H6  <0> d           3.694  -1.127   1.054  0.00  0.00     0.035 H 
ATOM     12  H7  <0> d           3.700   0.339   2.091  0.00  0.00     0.035 H 
BRANCH  10  13
ATOM     13  C2  <0> d           5.589  -0.091   1.131  0.00  0.00    -0.067 C 
ATOM     14  H4  <0> d           5.955   0.943   1.224  0.00  0.00     0.032 H 
ATOM     15  H5  <0> d           5.948  -0.523   0.186  0.00  0.00     0.032 H 
BRANCH  13  16
ATOM     16  C1  <0> d           6.112  -0.922   2.304  0.00  0.00    -0.076 C 
ATOM     17  H1  <0> d           7.212  -0.920   2.294  0.00  0.00     0.027 H 
ATOM     18  H2  <0> d           5.747  -1.956   2.212  0.00  0.00     0.027 H 
ATOM     19  H3  <0> d           5.753  -0.489   3.250  0.00  0.00     0.027 H 
ENDBRANCH  13  16
ENDBRANCH  10  13
ENDBRANCH   7  10
ENDBRANCH   1   7
BRANCH   4  20
ATOM     20  C8  <0> d          -1.208  -0.902   0.008  0.00  0.00    -0.032 C 
ATOM     21  H11 <0> d          -0.884  -1.954  -0.001  0.00  0.00     0.035 H 
ATOM     22  H12 <0> d          -1.819  -0.700  -0.884  0.00  0.00     0.035 H 
ATOM     23  H13 <0> d          -1.803  -0.710   0.913  0.00  0.00     0.035 H 
ENDBRANCH   4  20
BRANCH   3  24
ATOM     24  N3  <0> d          -1.166   2.211   0.020  0.00  0.00    -0.396 N 
ATOM     25  H14 <0> d          -2.165   1.752   0.027  0.00  0.00     0.156 HD
ATOM     26  H15 <0> d          -1.065   3.307   0.020  0.00  0.00     0.156 HD
ENDBRANCH   3  24
TORSDOF 6
