REMARK  6 active torsions:
REMARK  status: ('A' for Active; 'I' for Inactive)
REMARK    1  A    between atoms: C1_1  and  C2_2 
REMARK    2  A    between atoms: C2_2  and  C3_3 
REMARK    3  A    between atoms: C3_3  and  C4_4 
REMARK    4  A    between atoms: C4_4  and  C5_5 
REMARK    5  A    between atoms: C5_5  and  C6_6 
REMARK    6  A    between atoms: C6_6  and  O1_7 
ROOT
ATOM      1  C4  <0> d          -1.331   2.038   0.019  0.00  0.00    -0.050 C 
ATOM      2  H4  <0> d          -1.440   2.600  -0.908  0.00  0.00     0.035 H 
ATOM      3  H5  <0> d          -2.147   1.322   0.109  0.00  0.00     0.035 H 
ENDROOT
BRANCH   1   4
ATOM      4  C3  <0> d          -0.016   1.303   0.009  0.00  0.00     0.007 C 
ATOM      5  H3  <0> d           0.912   1.855   0.003  0.00  0.00     0.060 H 
BRANCH   4   6
ATOM      6  C2  <0> d           0.002  -0.004   0.002  0.00  0.00    -0.176 C 
BRANCH   6   7
ATOM      7  C1  <0> d           0.020  -1.311  -0.005  0.00  0.00    -0.011 C 
ATOM      8  H1  <0> d           0.018  -1.846  -0.943  0.00  0.00     0.051 H 
ATOM      9  H2  <0> d           0.036  -1.856   0.927  0.00  0.00     0.051 H 
ENDBRANCH   6   7
ENDBRANCH   4   6
ENDBRANCH   1   4
BRANCH   1  10
ATOM     10  C5  <0> d          -1.366   3.003   1.206  0.00  0.00    -0.044 C 
ATOM     11  H6  <0> d          -1.257   2.442   2.134  0.00  0.00     0.036 H 
ATOM     12  H7  <0> d          -0.550   3.720   1.117  0.00  0.00     0.036 H 
BRANCH  10  13
ATOM     13  C6  <0> d          -2.702   3.750   1.217  0.00  0.00     0.017 C 
ATOM     14  H8  <0> d          -2.811   4.311   0.289  0.00  0.00     0.073 H 
ATOM     15  H9  <0> d          -3.518   3.033   1.306  0.00  0.00     0.073 H 
BRANCH  13  16
ATOM     16  O1  <0> d          -2.735   4.651   2.326  0.00  0.00    -0.401 OA
ATOM     17  H10 <0> d          -3.554   5.159   2.395  0.00  0.00     0.209 HD
ENDBRANCH  13  16
ENDBRANCH  10  13
ENDBRANCH   1  10
TORSDOF 6
