REMARK  6 active torsions:
REMARK  status: ('A' for Active; 'I' for Inactive)
REMARK    1  A    between atoms: C1_1  and  C2_2 
REMARK    2  A    between atoms: C2_2  and  C3_3 
REMARK    3  A    between atoms: C2_2  and  C4_4 
REMARK    4  A    between atoms: C4_4  and  C5_6 
REMARK    5  A    between atoms: C4_4  and  O1_10 
REMARK    6  A    between atoms: C5_6  and  C7_8 
ROOT
ATOM      1  C4  <0> d           0.039   0.796   2.104  0.00  0.00     0.063 C 
ATOM      2  H1  <0> d          -0.719   1.265   2.731  0.00  0.00     0.091 H 
ENDROOT
BRANCH   1   3
ATOM      3  C2  <0> d          -0.311   1.015   0.630  0.00  0.00    -0.032 C 
ATOM      4  H5  <0> d          -1.238   0.491   0.396  0.00  0.00     0.043 H 
BRANCH   3   5
ATOM      5  C1  <0> d           0.818   0.472  -0.248  0.00  0.00    -0.071 C 
ATOM      6  H2  <0> d           0.999  -0.574  -0.003  0.00  0.00     0.028 H 
ATOM      7  H3  <0> d           1.725   1.049  -0.070  0.00  0.00     0.028 H 
ATOM      8  H4  <0> d           0.534   0.556  -1.297  0.00  0.00     0.028 H 
ENDBRANCH   3   5
BRANCH   3   9
ATOM      9  C3  <0> d          -0.490   2.511   0.365  0.00  0.00    -0.071 C 
ATOM     10  H6  <0> d          -0.740   2.667  -0.684  0.00  0.00     0.028 H 
ATOM     11  H7  <0> d          -1.294   2.897   0.992  0.00  0.00     0.028 H 
ATOM     12  H8  <0> d           0.437   3.035   0.600  0.00  0.00     0.028 H 
ENDBRANCH   3   9
ENDBRANCH   1   3
BRANCH   1  13
ATOM     13  C5  <0> d           0.087  -0.682   2.394  0.00  0.00    -0.040 C 
ATOM     14  C6  <0> d           1.252  -1.275   2.632  0.00  0.00    -0.113 C 
ATOM     15  H9  <0> d           1.287  -2.334   2.840  0.00  0.00     0.067 H 
ATOM     16  H10 <0> d           2.165  -0.697   2.617  0.00  0.00     0.067 H 
BRANCH  13  17
ATOM     17  C7  <0> d          -1.156  -1.468   2.415  0.00  0.00    -0.084 C 
ATOM     18  C8  <0> d          -2.330  -0.859   2.288  0.00  0.00    -0.121 C 
ATOM     19  H12 <0> d          -2.370   0.211   2.151  0.00  0.00     0.066 H 
ATOM     20  H13 <0> d          -3.243  -1.434   2.321  0.00  0.00     0.066 H 
ATOM     21  H11 <0> d          -1.114  -2.541   2.535  0.00  0.00     0.083 H 
ENDBRANCH  13  17
ENDBRANCH   1  13
BRANCH   1  22
ATOM     22  O1  <0> d           1.314   1.378   2.382  0.00  0.00    -0.391 OA
ATOM     23  H14 <0> d           2.044   0.981   1.887  0.00  0.00     0.210 HD
ENDBRANCH   1  22
TORSDOF 6
