REMARK  5 active torsions:
REMARK  status: ('A' for Active; 'I' for Inactive)
REMARK    1  A    between atoms: C1_1  and  C2_2 
REMARK    2  A    between atoms: C4_4  and  N1_11 
REMARK    3  A    between atoms: C5_5  and  O1_9 
REMARK    4  A    between atoms: C7_7  and  C8_8 
REMARK    5  A    between atoms: O1_9  and  C9_10 
ROOT
ATOM      1  C2  <0> d           0.002  -0.004   0.002  0.00  0.00    -0.054 A 
ATOM      2  C3  <0> d           0.006  -0.687  -1.200  0.00  0.00    -0.049 A 
ATOM      3  C4  <0> d           0.025  -2.074  -1.209  0.00  0.00     0.060 A 
ATOM      4  C5  <0> d           0.040  -2.775  -0.005  0.00  0.00     0.094 A 
ATOM      5  C6  <0> d           0.036  -2.083   1.195  0.00  0.00    -0.042 A 
ATOM      6  C7  <0> d           0.023  -0.700   1.196  0.00  0.00    -0.053 A 
ATOM      7  H4  <0> d          -0.006  -0.141  -2.132  0.00  0.00     0.087 H 
ATOM      8  H5  <0> d           0.047  -2.624   2.130  0.00  0.00     0.088 H 
ENDROOT
BRANCH   4   9
ATOM      9  O1  <0> d           0.058  -4.135  -0.007  0.00  0.00    -0.354 OA
BRANCH   9  10
ATOM     10  C9  <0> d           0.073  -4.786   1.264  0.00  0.00     0.010 C 
ATOM     11  H9  <0> d           0.961  -4.482   1.818  0.00  0.00     0.066 H 
ATOM     12  H10 <0> d          -0.818  -4.506   1.826  0.00  0.00     0.066 H 
ATOM     13  H11 <0> d           0.086  -5.866   1.119  0.00  0.00     0.066 H 
ENDBRANCH   9  10
ENDBRANCH   4   9
BRANCH   3  14
ATOM     14  N1  <0> d           0.028  -2.768  -2.425  0.00  0.00    -0.397 N 
ATOM     15  H12 <0> d           0.017  -2.279  -3.262  0.00  0.00     0.156 HD
ATOM     16  H13 <0> d           0.041  -3.737  -2.430  0.00  0.00     0.156 HD
ENDBRANCH   3  14
BRANCH   6  17
ATOM     17  C8  <0> d           0.025   0.051   2.503  0.00  0.00    -0.051 C 
ATOM     18  H6  <0> d          -1.001   0.218   2.828  0.00  0.00     0.033 H 
ATOM     19  H7  <0> d           0.554  -0.533   3.256  0.00  0.00     0.033 H 
ATOM     20  H8  <0> d           0.525   1.010   2.370  0.00  0.00     0.033 H 
ENDBRANCH   6  17
BRANCH   1  21
ATOM     21  C1  <0> d          -0.018   1.503   0.010  0.00  0.00    -0.051 C 
ATOM     22  H1  <0> d           1.004   1.880   0.003  0.00  0.00     0.033 H 
ATOM     23  H2  <0> d          -0.545   1.864  -0.873  0.00  0.00     0.033 H 
ATOM     24  H3  <0> d          -0.529   1.854   0.907  0.00  0.00     0.033 H 
ENDBRANCH   1  21
TORSDOF 5
