REMARK  1 active torsions:
REMARK  status: ('A' for Active; 'I' for Inactive)
REMARK    1  A    between atoms: C1_1  and  N1_2 
ROOT
ATOM      1  N1  <0> d           2.148   1.397   1.151  0.00  0.00     0.088 N 
ATOM      2  C2  <0> d           1.421   1.950  -0.001  0.00  0.00     0.132 C 
ATOM      3  C3  <0> d          -0.017   1.426   0.010  0.00  0.00     0.044 C 
ATOM      4  O1  <0> d           0.002  -0.004   0.002  0.00  0.00    -0.388 OA
ATOM      5  C4  <0> d           0.701  -0.577   1.111  0.00  0.00     0.044 C 
ATOM      6  C5  <0> d           2.147  -0.072   1.111  0.00  0.00     0.132 C 
ATOM      7  H4  <0> d           1.413   3.049   0.063  0.00  0.00     0.083 H 
ATOM      8  H5  <0> d           1.919   1.641  -0.932  0.00  0.00     0.083 H 
ATOM      9  H6  <0> d          -0.531   1.783   0.915  0.00  0.00     0.077 H 
ATOM     10  H7  <0> d          -0.548   1.792  -0.881  0.00  0.00     0.077 H 
ATOM     11  H8  <0> d           0.207  -0.280   2.048  0.00  0.00     0.077 H 
ATOM     12  H9  <0> d           0.693  -1.673   1.022  0.00  0.00     0.077 H 
ATOM     13  H10 <0> d           2.656  -0.414   0.198  0.00  0.00     0.083 H 
ATOM     14  H11 <0> d           2.674  -0.464   1.994  0.00  0.00     0.083 H 
ENDROOT
BRANCH   1  15
ATOM     15  C1  <0> d           3.519   1.922   1.210  0.00  0.00     0.095 C 
ATOM     16  H1  <0> d           3.490   3.021   1.239  0.00  0.00     0.071 H 
ATOM     17  H2  <0> d           4.075   1.593   0.320  0.00  0.00     0.071 H 
ATOM     18  H3  <0> d           4.017   1.544   2.115  0.00  0.00     0.071 H 
ENDBRANCH   1  15
TORSDOF 1
