REMARK  3 active torsions:
REMARK  status: ('A' for Active; 'I' for Inactive)
REMARK    1  A    between atoms: C1_1  and  C2_2 
REMARK    2  A    between atoms: C2_2  and  C3_3 
REMARK    3  A    between atoms: C2_2  and  C4_4 
ROOT
ATOM      1  C4  <0> d          -0.001   1.080   2.488  0.00  0.00     0.088 A 
ATOM      2  N1  <0> d           0.123  -0.219   2.673  0.00  0.00    -0.324 N 
ATOM      3  C5  <0> d           0.765  -0.698   3.735  0.00  0.00     0.184 A 
ATOM      4  C6  <0> d           1.296   0.192   4.661  0.00  0.00     0.021 A 
ATOM      5  C7  <0> d           1.139   1.554   4.432  0.00  0.00     0.184 A 
ATOM      6  N2  <0> d           0.489   1.954   3.343  0.00  0.00    -0.324 N 
ATOM      7  O1  <0> d           1.640   2.460   5.306  0.00  0.00    -0.172 OA
ATOM      8  O2  <0> d           0.893  -2.035   3.914  0.00  0.00    -0.172 OA
ATOM      9  H8  <0> d           1.782  -0.126   5.475  0.00  0.00     0.097 H 
ATOM     10  H9  <0> d           0.356   3.029   3.147  0.00  0.00     0.169 HD
ATOM     11  H10 <0> d          -0.311  -0.909   1.935  0.00  0.00     0.169 HD
ENDROOT
BRANCH   1  12
ATOM     12  C2  <0> d          -0.725   1.579   1.265  0.00  0.00    -0.005 C 
ATOM     13  H4  <0> d          -0.728   2.679   1.282  0.00  0.00     0.050 H 
BRANCH  12  14
ATOM     14  C1  <0> d          -0.007   1.081   0.009  0.00  0.00    -0.067 C 
ATOM     15  H1  <0> d           1.026   1.459   0.003  0.00  0.00     0.028 H 
ATOM     16  H2  <0> d          -0.536   1.446  -0.885  0.00  0.00     0.028 H 
ATOM     17  H3  <0> d           0.004  -0.019   0.005  0.00  0.00     0.028 H 
ENDBRANCH  12  14
BRANCH  12  18
ATOM     18  C3  <0> d          -2.162   1.054   1.273  0.00  0.00    -0.067 C 
ATOM     19  H5  <0> d          -2.678   1.412   2.176  0.00  0.00     0.028 H 
ATOM     20  H6  <0> d          -2.151  -0.046   1.269  0.00  0.00     0.028 H 
ATOM     21  H7  <0> d          -2.691   1.419   0.379  0.00  0.00     0.028 H 
ENDBRANCH  12  18
ENDBRANCH   1  12
TORSDOF 3
