REMARK  1 active torsions:
REMARK  status: ('A' for Active; 'I' for Inactive)
REMARK    1  A    between atoms: C4_4  and  C7_7 
ROOT
ATOM      1  C7  <0> d           0.002  -0.004   0.002  0.00  0.00     0.076 C 
ATOM      2  C8  <0> d           0.221  -0.610  -1.395  0.00  0.00    -0.042 C 
ATOM      3  C9  <0> d          -0.824  -1.672  -1.010  0.00  0.00    -0.061 C 
ATOM      4  C10 <0> d          -1.398  -0.639  -0.026  0.00  0.00    -0.042 C 
ATOM      5  C11 <0> d           0.886  -0.569   1.035  0.00  0.00     0.074 C 
ATOM      6  N1  <0> d           1.567  -1.006   1.832  0.00  0.00    -0.196 NA
ATOM      7  H6  <0> d          -0.098   0.042  -2.208  0.00  0.00     0.036 H 
ATOM      8  H7  <0> d           1.222  -1.014  -1.543  0.00  0.00     0.036 H 
ATOM      9  H8  <0> d          -0.396  -2.548  -0.522  0.00  0.00     0.033 H 
ATOM     10  H9  <0> d          -1.506  -1.929  -1.820  0.00  0.00     0.033 H 
ATOM     11  H10 <0> d          -1.702  -1.067   0.929  0.00  0.00     0.036 H 
ATOM     12  H11 <0> d          -2.161   0.005  -0.463  0.00  0.00     0.036 H 
ENDROOT
BRANCH   1  13
ATOM     13  C4  <0> d          -0.018   1.503   0.010  0.00  0.00    -0.035 A 
ATOM     14  C3  <0> d           1.169   2.210   0.003  0.00  0.00    -0.075 A 
ATOM     15  C2  <0> d           1.151   3.592   0.010  0.00  0.00    -0.082 A 
ATOM     16  H3  <0> d           2.112   1.683  -0.009  0.00  0.00     0.084 H 
ATOM     17  C1  <0> d          -0.056   4.267   0.025  0.00  0.00    -0.083 A 
ATOM     18  H2  <0> d           2.078   4.145   0.004  0.00  0.00     0.083 H 
ATOM     19  C6  <0> d          -1.244   3.560   0.032  0.00  0.00    -0.082 A 
ATOM     20  H1  <0> d          -0.070   5.347   0.031  0.00  0.00     0.083 H 
ATOM     21  C5  <0> d          -1.225   2.178   0.020  0.00  0.00    -0.075 A 
ATOM     22  H5  <0> d          -2.186   4.087   0.044  0.00  0.00     0.083 H 
ATOM     23  H4  <0> d          -2.153   1.625   0.021  0.00  0.00     0.084 H 
ENDBRANCH   1  13
TORSDOF 1
