REMARK  0 active torsions:
REMARK  status: ('A' for Active; 'I' for Inactive)
ROOT
ATOM      1  C1  <0> d          -0.018   1.502   0.010  0.00  0.00    -0.047 C 
ATOM      2  C2  <0> d           1.411   2.041  -0.001  0.00  0.00    -0.047 C 
ATOM      3  C3  <0> d           2.204   1.373  -1.092  0.00  0.00    -0.103 C 
ATOM      4  C4  <0> d           1.978   0.100  -1.398  0.00  0.00    -0.087 C 
ATOM      5  C5  <0> d           0.948  -0.655  -0.666  0.00  0.00    -0.087 C 
ATOM      6  C6  <0> d           0.002  -0.004   0.002  0.00  0.00    -0.103 C 
ATOM      7  H1  <0> d          -0.531   1.852   0.906  0.00  0.00     0.039 H 
ATOM      8  H2  <0> d          -0.548   1.861  -0.872  0.00  0.00     0.039 H 
ATOM      9  H3  <0> d           1.391   3.117  -0.175  0.00  0.00     0.039 H 
ATOM     10  H4  <0> d           1.881   1.841   0.962  0.00  0.00     0.039 H 
ATOM     11  H5  <0> d           2.958   1.930  -1.629  0.00  0.00     0.076 H 
ATOM     12  H6  <0> d           2.548  -0.380  -2.179  0.00  0.00     0.083 H 
ATOM     13  H7  <0> d           0.960  -1.735  -0.674  0.00  0.00     0.083 H 
ATOM     14  H8  <0> d          -0.754  -0.556   0.541  0.00  0.00     0.076 H 
ENDROOT
TORSDOF 0
