REMARK  4 active torsions:
REMARK  status: ('A' for Active; 'I' for Inactive)
REMARK    1  A    between atoms: C1_1  and  C2_2 
REMARK    2  A    between atoms: C2_2  and  C3_3 
REMARK    3  A    between atoms: C2_2  and  C4_4 
REMARK    4  A    between atoms: C4_4  and  N2_8 
ROOT
ATOM      1  C4  <0> d          -1.433  -0.534   0.013  0.00  0.00     0.215 C 
ATOM      2  H1  <0> d          -1.944  -0.182   0.910  0.00  0.00     0.112 H 
ATOM      3  C5  <0> d          -2.145  -0.046  -1.180  0.00  0.00     0.095 C 
ATOM      4  N1  <0> d          -2.695   0.330  -2.100  0.00  0.00    -0.195 NA
ENDROOT
BRANCH   1   5
ATOM      5  C2  <0> d           0.002  -0.004   0.002  0.00  0.00    -0.019 C 
ATOM      6  H5  <0> d           0.512  -0.356  -0.895  0.00  0.00     0.043 H 
BRANCH   5   7
ATOM      7  C1  <0> d          -0.019   1.526   0.010  0.00  0.00    -0.070 C 
ATOM      8  H2  <0> d           1.004   1.903   0.003  0.00  0.00     0.028 H 
ATOM      9  H3  <0> d          -0.546   1.887  -0.873  0.00  0.00     0.028 H 
ATOM     10  H4  <0> d          -0.529   1.877   0.907  0.00  0.00     0.028 H 
ENDBRANCH   5   7
BRANCH   5  11
ATOM     11  C3  <0> d           0.742  -0.511   1.242  0.00  0.00    -0.070 C 
ATOM     12  H6  <0> d           0.232  -0.159   2.138  0.00  0.00     0.028 H 
ATOM     13  H7  <0> d           0.757  -1.601   1.236  0.00  0.00     0.028 H 
ATOM     14  H8  <0> d           1.765  -0.134   1.234  0.00  0.00     0.028 H 
ENDBRANCH   5  11
ENDBRANCH   1   5
BRANCH   1  15
ATOM     15  N2  <0> d          -1.413  -2.002   0.005  0.00  0.00     0.096 N 
ATOM     16  H9  <0> d          -2.348  -2.377   0.077  0.00  0.00     0.314 HD
ATOM     17  H10 <0> d          -0.945  -2.353  -0.817  0.00  0.00     0.314 HD
ENDBRANCH   1  15
TORSDOF 4
