REMARK  4 active torsions:
REMARK  status: ('A' for Active; 'I' for Inactive)
REMARK    1  A    between atoms: C1_1  and  C2_2 
REMARK    2  A    between atoms: C5_6  and  C8_11 
REMARK    3  A    between atoms: C8_11  and  C9_12 
REMARK    4  A    between atoms: C8_11  and  C10_13 
ROOT
ATOM      1  C2  <0> d          -0.754   1.594  -1.233  0.00  0.00     0.000 C 
ATOM      2  H1  <0> d          -1.664   1.181  -1.276  0.00  0.00     0.051 H 
ATOM      3  C3  <0> d          -0.013   1.086   0.008  0.00  0.00    -0.055 C 
ATOM      4  C4  <0> d          -0.729   1.579   1.266  0.00  0.00    -0.060 C 
ATOM      5  C5  <0> d          -0.677   3.107   1.327  0.00  0.00    -0.045 C 
ATOM      6  H2  <0> d           0.361   3.437   1.288  0.00  0.00     0.041 H 
ATOM      7  C6  <0> d          -1.444   3.691   0.136  0.00  0.00    -0.006 C 
ATOM      8  C7  <0> d          -0.879   3.098  -1.136  0.00  0.00     0.131 C 
ATOM      9  O1  <0> d          -0.537   3.808  -2.052  0.00  0.00    -0.298 OA
ATOM     10  H6  <0> d           0.002  -0.004   0.002  0.00  0.00     0.034 H 
ATOM     11  H7  <0> d           1.010   1.463   0.000  0.00  0.00     0.034 H 
ATOM     12  H8  <0> d          -1.769   1.253   1.242  0.00  0.00     0.033 H 
ATOM     13  H9  <0> d          -0.241   1.164   2.148  0.00  0.00     0.033 H 
ATOM     14  H10 <0> d          -1.338   4.685   0.127  0.00  0.00     0.044 H 
ATOM     15  H11 <0> d          -2.501   3.440   0.219  0.00  0.00     0.044 H 
ENDROOT
BRANCH   5  16
ATOM     16  C8  <0> d          -1.317   3.588   2.631  0.00  0.00    -0.057 C 
ATOM     17  H12 <0> d          -2.355   3.257   2.670  0.00  0.00     0.039 H 
BRANCH  16  18
ATOM     18  C9  <0> d          -0.551   3.004   3.820  0.00  0.00    -0.073 C 
ATOM     19  H13 <0> d           0.487   3.335   3.782  0.00  0.00     0.028 H 
ATOM     20  H14 <0> d          -1.007   3.347   4.749  0.00  0.00     0.028 H 
ATOM     21  H15 <0> d          -0.588   1.916   3.777  0.00  0.00     0.028 H 
ENDBRANCH  16  18
BRANCH  16  22
ATOM     22  C10 <0> d          -1.266   5.116   2.691  0.00  0.00    -0.073 C 
ATOM     23  H16 <0> d          -0.228   5.446   2.652  0.00  0.00     0.028 H 
ATOM     24  H17 <0> d          -1.811   5.531   1.844  0.00  0.00     0.028 H 
ATOM     25  H18 <0> d          -1.722   5.458   3.620  0.00  0.00     0.028 H 
ENDBRANCH  16  22
ENDBRANCH   5  16
BRANCH   1  26
ATOM     26  C1  <0> d           0.034   1.223  -2.490  0.00  0.00    -0.066 C 
ATOM     27  H3  <0> d           0.137   0.140  -2.549  0.00  0.00     0.028 H 
ATOM     28  H4  <0> d          -0.495   1.585  -3.372  0.00  0.00     0.028 H 
ATOM     29  H5  <0> d           1.023   1.680  -2.447  0.00  0.00     0.028 H 
ENDBRANCH   1  26
TORSDOF 4
