REMARK  3 active torsions:
REMARK  status: ('A' for Active; 'I' for Inactive)
REMARK    1  A    between atoms: C1_1  and  O1_2 
REMARK    2  A    between atoms: O1_2  and  C2_3 
REMARK    3  A    between atoms: C3_4  and  N1_10 
ROOT
ATOM      1  C2  <0> d           2.382   1.417  -0.014  0.00  0.00     0.116 A 
ATOM      2  C3  <0> d           2.400   0.024  -0.021  0.00  0.00     0.061 A 
ATOM      3  C4  <0> d           1.207  -0.682  -0.013  0.00  0.00    -0.055 A 
ATOM      4  C5  <0> d           0.002  -0.004   0.002  0.00  0.00    -0.079 A 
ATOM      5  C6  <0> d          -0.017   1.378   0.010  0.00  0.00    -0.059 A 
ATOM      6  C7  <0> d           1.170   2.090   0.002  0.00  0.00     0.069 A 
ATOM      7 Cl1  <0> d           1.142   3.825   0.011  0.00  0.00    -0.081 Cl
ATOM      8  H4  <0> d           1.218  -1.762  -0.018  0.00  0.00     0.087 H 
ATOM      9  H5  <0> d          -0.927  -0.555   0.008  0.00  0.00     0.083 H 
ATOM     10  H6  <0> d          -0.960   1.904   0.017  0.00  0.00     0.086 H 
ENDROOT
BRANCH   1  11
ATOM     11  O1  <0> d           3.549   2.115  -0.021  0.00  0.00    -0.352 OA
BRANCH  11  12
ATOM     12  C1  <0> d           4.094   2.454  -1.298  0.00  0.00     0.011 C 
ATOM     13  H1  <0> d           5.023   3.007  -1.161  0.00  0.00     0.067 H 
ATOM     14  H2  <0> d           4.294   1.542  -1.861  0.00  0.00     0.067 H 
ATOM     15  H3  <0> d           3.381   3.070  -1.845  0.00  0.00     0.067 H 
ENDBRANCH  11  12
ENDBRANCH   1  11
BRANCH   2  16
ATOM     16  N1  <0> d           3.621  -0.661  -0.036  0.00  0.00    -0.397 N 
ATOM     17  H7  <0> d           3.633  -1.631  -0.040  0.00  0.00     0.156 HD
ATOM     18  H8  <0> d           4.455  -0.166  -0.041  0.00  0.00     0.156 HD
ENDBRANCH   2  16
TORSDOF 3
