REMARK  2 active torsions:
REMARK  status: ('A' for Active; 'I' for Inactive)
REMARK    1  A    between atoms: C1_1  and  C2_2 
REMARK    2  A    between atoms: C2_2  and  C3_4 
ROOT
ATOM      1  C3  <0> d           1.238  -0.665  -0.013  0.00  0.00     0.138 A 
ATOM      2  C4  <0> d           0.002  -0.004   0.002  0.00  0.00     0.139 A 
ATOM      3  C5  <0> d          -0.017   1.389   0.010  0.00  0.00    -0.044 A 
ATOM      4  C6  <0> d           1.190   2.065   0.002  0.00  0.00    -0.063 A 
ATOM      5  C7  <0> d           2.377   1.344  -0.013  0.00  0.00     0.003 A 
ATOM      6  N1  <0> d           2.373   0.031  -0.020  0.00  0.00    -0.254 NA
ATOM      7  O2  <0> d          -1.156  -0.709   0.010  0.00  0.00    -0.190 OA
ATOM      8  H4  <0> d          -0.952   1.929   0.017  0.00  0.00     0.088 H 
ATOM      9  H5  <0> d           1.209   3.144   0.007  0.00  0.00     0.085 H 
ATOM     10  H6  <0> d           3.319   1.872  -0.019  0.00  0.00     0.114 H 
ENDROOT
BRANCH   1  11
ATOM     11  C2  <0> d           1.282  -2.135  -0.022  0.00  0.00     0.176 C 
ATOM     12  O1  <0> d           0.250  -2.772  -0.015  0.00  0.00    -0.291 OA
BRANCH  11  13
ATOM     13  C1  <0> d           2.609  -2.850  -0.038  0.00  0.00    -0.015 C 
ATOM     14  H1  <0> d           3.423  -2.110  -0.042  0.00  0.00     0.038 H 
ATOM     15  H2  <0> d           2.677  -3.475  -0.940  0.00  0.00     0.038 H 
ATOM     16  H3  <0> d           2.694  -3.485   0.856  0.00  0.00     0.038 H 
ENDBRANCH  11  13
ENDBRANCH   1  11
TORSDOF 2
