REMARK  3 active torsions:
REMARK  status: ('A' for Active; 'I' for Inactive)
REMARK    1  A    between atoms: C2_2  and  C3_3 
REMARK    2  A    between atoms: C3_3  and  O1_4 
REMARK    3  A    between atoms: O1_4  and  C4_5 
ROOT
ATOM      1  C1  <0> d           0.018  -1.178  -0.004  0.00  0.00    -0.152 C 
ATOM      2  C2  <0> d           0.002  -0.004   0.002  0.00  0.00    -0.091 C 
ATOM      3  H1  <0> d           0.032  -2.228  -0.010  0.00  0.00     0.166 H 
ENDROOT
BRANCH   2   4
ATOM      4  C3  <0> d          -0.018   1.468   0.010  0.00  0.00     0.080 C 
ATOM      5  H2  <0> d          -0.545   1.829  -0.873  0.00  0.00     0.094 H 
ATOM      6  H3  <0> d          -0.528   1.819   0.907  0.00  0.00     0.094 H 
BRANCH   4   7
ATOM      7  O1  <0> d           1.323   1.962  -0.000  0.00  0.00    -0.339 OA
BRANCH   7   8
ATOM      8  C4  <0> d           1.482   3.312   0.006  0.00  0.00     0.072 A 
ATOM      9  C9  <0> d           2.756   3.860  -0.004  0.00  0.00    -0.014 A 
ATOM     10  C8  <0> d           2.916   5.235  -0.004  0.00  0.00     0.119 A 
ATOM     11  H7  <0> d           3.622   3.215  -0.015  0.00  0.00     0.092 H 
ATOM     12  C7  <0> d           1.805   6.061   0.017  0.00  0.00    -0.045 A 
ATOM     13  F1  <0> d           4.156   5.771  -0.018  0.00  0.00    -0.206 F 
ATOM     14  C6  <0> d           0.535   5.515   0.032  0.00  0.00    -0.077 A 
ATOM     15  H6  <0> d           1.930   7.134   0.021  0.00  0.00     0.088 H 
ATOM     16  C5  <0> d           0.371   4.143   0.026  0.00  0.00    -0.051 A 
ATOM     17  H5  <0> d          -0.330   6.161   0.048  0.00  0.00     0.083 H 
ATOM     18  H4  <0> d          -0.621   3.717   0.038  0.00  0.00     0.087 H 
ENDBRANCH   7   8
ENDBRANCH   4   7
ENDBRANCH   2   4
TORSDOF 3
