REMARK  1 active torsions:
REMARK  status: ('A' for Active; 'I' for Inactive)
REMARK    1  A    between atoms: C1_1  and  C2_2 
ROOT
ATOM      1  C2  <0> d           1.544   5.410   0.016  0.00  0.00     0.027 A 
ATOM      2  C3  <0> d           2.193   4.212   0.004  0.00  0.00     0.079 A 
ATOM      3  C4  <0> d           1.150   3.170   0.008  0.00  0.00     0.013 A 
ATOM      4  C5  <0> d           1.173   1.778   0.000  0.00  0.00    -0.069 A 
ATOM      5  C6  <0> d          -0.013   1.076   0.008  0.00  0.00    -0.082 A 
ATOM      6  C7  <0> d          -1.225   1.750   0.017  0.00  0.00    -0.081 A 
ATOM      7  C8  <0> d          -1.263   3.127   0.030  0.00  0.00    -0.056 A 
ATOM      8  C9  <0> d          -0.077   3.854   0.023  0.00  0.00     0.044 A 
ATOM      9  N1  <0> d           0.203   5.205   0.027  0.00  0.00    -0.358 N 
ATOM     10  H1  <0> d          -0.465   5.908   0.037  0.00  0.00     0.166 HD
ATOM     11  C10 <0> d           3.610   4.005  -0.011  0.00  0.00     0.102 C 
ATOM     12  N2  <0> d           4.734   3.840  -0.022  0.00  0.00    -0.191 NA
ATOM     13  H5  <0> d           2.115   1.250  -0.011  0.00  0.00     0.085 H 
ATOM     14  H6  <0> d           0.002  -0.004   0.002  0.00  0.00     0.083 H 
ATOM     15  H7  <0> d          -2.149   1.190   0.019  0.00  0.00     0.083 H 
ATOM     16  H8  <0> d          -2.212   3.642   0.041  0.00  0.00     0.086 H 
ENDROOT
BRANCH   1  17
ATOM     17  C1  <0> d           2.215   6.759   0.017  0.00  0.00    -0.036 C 
ATOM     18  H2  <0> d           2.387   7.080   1.044  0.00  0.00     0.035 H 
ATOM     19  H3  <0> d           3.169   6.691  -0.507  0.00  0.00     0.035 H 
ATOM     20  H4  <0> d           1.575   7.484  -0.487  0.00  0.00     0.035 H 
ENDBRANCH   1  17
TORSDOF 1
