REMARK  2 active torsions:
REMARK  status: ('A' for Active; 'I' for Inactive)
REMARK    1  A    between atoms: C1_1  and  O1_2 
REMARK    2  A    between atoms: O1_2  and  C2_3 
ROOT
ATOM      1  C2  <0> d           1.275   2.006   0.001  0.00  0.00     0.133 A 
ATOM      2  H1  <0> d           1.857   1.714   0.875  0.00  0.00     0.104 H 
ATOM      3  C3  <0> d           1.142   3.516   0.009  0.00  0.00    -0.066 A 
ATOM      4  C4  <0> d          -0.099   4.025   0.024  0.00  0.00    -0.067 A 
ATOM      5  C5  <0> d          -1.229   3.186   0.030  0.00  0.00     0.006 A 
ATOM      6  N1  <0> d          -1.173   1.882   0.018  0.00  0.00    -0.224 NA
ATOM      7  C6  <0> d          -0.014   1.210   0.009  0.00  0.00     0.275 A 
ATOM      8  O2  <0> d           0.002  -0.004   0.002  0.00  0.00    -0.268 OA
ATOM      9  H5  <0> d           2.012   4.157   0.005  0.00  0.00     0.081 H 
ATOM     10  H6  <0> d          -0.234   5.097   0.030  0.00  0.00     0.085 H 
ATOM     11  H7  <0> d          -2.204   3.650   0.041  0.00  0.00     0.114 H 
ENDROOT
BRANCH   1  12
ATOM     12  O1  <0> d           2.017   1.634  -1.163  0.00  0.00    -0.377 OA
BRANCH  12  13
ATOM     13  C1  <0> d           2.907   0.535  -0.959  0.00  0.00     0.005 C 
ATOM     14  H2  <0> d           2.338  -0.341  -0.647  0.00  0.00     0.066 H 
ATOM     15  H3  <0> d           3.432   0.315  -1.888  0.00  0.00     0.066 H 
ATOM     16  H4  <0> d           3.630   0.792  -0.185  0.00  0.00     0.066 H 
ENDBRANCH  12  13
ENDBRANCH   1  12
TORSDOF 2
