REMARK  3 active torsions:
REMARK  status: ('A' for Active; 'I' for Inactive)
REMARK    1  A    between atoms: C1_1  and  C2_2 
REMARK    2  A    between atoms: C3_3  and  N3_10 
REMARK    3  A    between atoms: C5_6  and  C6_8 
ROOT
ATOM      1  C2  <0> d          -0.742   1.585  -1.213  0.00  0.00     0.064 A 
ATOM      2  C3  <0> d          -2.091   1.795  -1.167  0.00  0.00     0.119 A 
ATOM      3  C4  <0> d          -2.742   2.264  -2.334  0.00  0.00     0.275 A 
ATOM      4  N1  <0> d          -2.001   2.484  -3.441  0.00  0.00    -0.310 N 
ATOM      5  C5  <0> d          -0.671   2.256  -3.417  0.00  0.00     0.103 A 
ATOM      6  N2  <0> d          -0.069   1.829  -2.341  0.00  0.00    -0.238 NA
ATOM      7  O1  <0> d          -3.945   2.465  -2.339  0.00  0.00    -0.266 OA
ATOM      8  H9  <0> d          -2.424   2.805  -4.253  0.00  0.00     0.170 HD
ENDROOT
BRANCH   1   9
ATOM      9  C1  <0> d          -0.013   1.086   0.008  0.00  0.00    -0.033 C 
ATOM     10  H1  <0> d           0.002  -0.004   0.002  0.00  0.00     0.035 H 
ATOM     11  H2  <0> d           1.010   1.463   0.000  0.00  0.00     0.035 H 
ATOM     12  H3  <0> d          -0.523   1.437   0.905  0.00  0.00     0.035 H 
ENDBRANCH   1   9
BRANCH   2  13
ATOM     13  N3  <0> d          -2.814   1.550   0.008  0.00  0.00    -0.393 N 
ATOM     14  H8  <0> d          -2.357   1.229   0.801  0.00  0.00     0.156 HD
ATOM     15  H7  <0> d          -3.772   1.703   0.029  0.00  0.00     0.156 HD
ENDBRANCH   2  13
BRANCH   5  16
ATOM     16  C6  <0> d           0.140   2.507  -4.662  0.00  0.00    -0.021 C 
ATOM     17  H4  <0> d           0.497   3.537  -4.662  0.00  0.00     0.037 H 
ATOM     18  H5  <0> d           0.992   1.828  -4.684  0.00  0.00     0.037 H 
ATOM     19  H6  <0> d          -0.482   2.338  -5.542  0.00  0.00     0.037 H 
ENDBRANCH   5  16
TORSDOF 3
