REMARK  3 active torsions:
REMARK  status: ('A' for Active; 'I' for Inactive)
REMARK    1  A    between atoms: C1_1  and  N1_2 
REMARK    2  A    between atoms: N1_2  and  C2_3 
REMARK    3  A    between atoms: N1_2  and  C3_4 
ROOT
ATOM      1  N1  <0> d           1.637  -1.773  -0.024  0.00  0.00    -0.220 N 
ENDROOT
BRANCH   1   2
ATOM      2  C1  <0> d           0.633  -2.840  -0.020  0.00  0.00    -0.003 C 
ATOM      3  H1  <0> d          -0.364  -2.399  -0.008  0.00  0.00     0.057 H 
ATOM      4  H2  <0> d           0.749  -3.451  -0.915  0.00  0.00     0.057 H 
ATOM      5  H3  <0> d           0.766  -3.462   0.865  0.00  0.00     0.057 H 
ENDBRANCH   1   2
BRANCH   1   6
ATOM      6  C2  <0> d           3.063  -2.110  -0.040  0.00  0.00    -0.003 C 
ATOM      7  H4  <0> d           3.427  -2.200   0.984  0.00  0.00     0.057 H 
ATOM      8  H5  <0> d           3.207  -3.057  -0.560  0.00  0.00     0.057 H 
ATOM      9  H6  <0> d           3.616  -1.324  -0.554  0.00  0.00     0.057 H 
ENDBRANCH   1   6
BRANCH   1  10
ATOM     10  C3  <0> d           1.240  -0.448  -0.012  0.00  0.00     0.763 A 
ATOM     11  N4  <0> d           0.002  -0.004   0.002  0.00  0.00     0.067 NA
ATOM     12  N3  <0> d          -0.015   1.280   0.009  0.00  0.00    -0.006 NA
ATOM     13  N2  <0> d           1.187   1.744   0.000  0.00  0.00    -0.006 NA
ATOM     14  N5  <0> d           2.023   0.635  -0.014  0.00  0.00     0.067 NA
ENDBRANCH   1  10
TORSDOF 3
