REMARK  2 active torsions:
REMARK  status: ('A' for Active; 'I' for Inactive)
REMARK    1  A    between atoms: C1_1  and  C2_2 
REMARK    2  A    between atoms: C3_3  and  C5_7 
ROOT
ATOM      1  C2  <0> d           0.002  -0.004   0.002  0.00  0.00     0.093 A 
ATOM      2  C3  <0> d          -0.017   1.370   0.010  0.00  0.00     0.091 A 
ATOM      3  C4  <0> d           1.413   1.717  -0.002  0.00  0.00     0.048 A 
ATOM      4  N1  <0> d           2.043   0.580  -0.014  0.00  0.00    -0.140 NA
ATOM      5  O1  <0> d           1.288  -0.362  -0.012  0.00  0.00    -0.217 OA
ATOM      6  H4  <0> d           1.848   2.706  -0.001  0.00  0.00     0.119 H 
ENDROOT
BRANCH   1   7
ATOM      7  C1  <0> d          -1.192  -0.924   0.009  0.00  0.00    -0.028 C 
ATOM      8  H1  <0> d          -1.489  -1.140  -1.018  0.00  0.00     0.036 H 
ATOM      9  H2  <0> d          -0.931  -1.853   0.515  0.00  0.00     0.036 H 
ATOM     10  H3  <0> d          -2.018  -0.443   0.533  0.00  0.00     0.036 H 
ENDBRANCH   1   7
BRANCH   2  11
ATOM     11  C5  <0> d          -1.180   2.273   0.020  0.00  0.00     0.213 C 
ATOM     12  O2  <0> d          -2.305   1.813   0.023  0.00  0.00    -0.644 OA
ATOM     13  O3  <0> d          -0.997   3.608   0.027  0.00  0.00    -0.644 OA
ENDBRANCH   2  11
TORSDOF 2
