REMARK  2 active torsions:
REMARK  status: ('A' for Active; 'I' for Inactive)
REMARK    1  A    between atoms: C1_1  and  O1_2 
REMARK    2  A    between atoms: O1_2  and  C2_3 
REMARK       I    between atoms: C2_3  and  N1_5 
ROOT
ATOM      1  C2  <0> d           0.002  -0.004   0.002  0.00  0.00     0.362 C 
ATOM      2  O2  <0> d           1.062  -0.597  -0.011  0.00  0.00    -0.238 OA
ATOM      3  N1  <0> d          -0.016   1.344   0.009  0.00  0.00    -0.328 N 
ATOM      4  C3  <0> d          -1.290   2.075   0.019  0.00  0.00    -0.000 C 
ATOM      5  C4  <0> d          -1.279   3.061   1.198  0.00  0.00    -0.050 C 
ATOM      6  C5  <0> d          -0.042   3.956   1.094  0.00  0.00    -0.062 C 
ATOM      7  C6  <0> d           1.221   3.095   1.174  0.00  0.00    -0.050 C 
ATOM      8  C7  <0> d           1.238   2.109   0.002  0.00  0.00    -0.000 C 
ATOM      9  H4  <0> d          -1.405   2.621  -0.917  0.00  0.00     0.064 H 
ATOM     10  H5  <0> d          -2.115   1.371   0.138  0.00  0.00     0.064 H 
ATOM     11  H6  <0> d          -1.251   2.509   2.137  0.00  0.00     0.035 H 
ATOM     12  H7  <0> d          -2.177   3.677   1.164  0.00  0.00     0.035 H 
ATOM     13  H8  <0> d          -0.044   4.675   1.913  0.00  0.00     0.033 H 
ATOM     14  H9  <0> d          -0.058   4.489   0.143  0.00  0.00     0.033 H 
ATOM     15  H10 <0> d           1.226   2.542   2.114  0.00  0.00     0.035 H 
ATOM     16  H11 <0> d           2.102   3.735   1.124  0.00  0.00     0.035 H 
ATOM     17  H12 <0> d           2.082   1.429   0.108  0.00  0.00     0.064 H 
ATOM     18  H13 <0> d           1.326   2.656  -0.937  0.00  0.00     0.064 H 
ENDROOT
BRANCH   1  19
ATOM     19  O1  <0> d          -1.155  -0.693   0.009  0.00  0.00    -0.309 OA
BRANCH  19  20
ATOM     20  C1  <0> d          -1.059  -2.142   0.001  0.00  0.00     0.015 C 
ATOM     21  H1  <0> d          -2.060  -2.572   0.008  0.00  0.00     0.067 H 
ATOM     22  H2  <0> d          -0.531  -2.466  -0.896  0.00  0.00     0.067 H 
ATOM     23  H3  <0> d          -0.514  -2.475   0.884  0.00  0.00     0.067 H 
ENDBRANCH  19  20
ENDBRANCH   1  19
TORSDOF 2
