REMARK  1 active torsions:
REMARK  status: ('A' for Active; 'I' for Inactive)
REMARK    1  A    between atoms: C1_1  and  C2_2 
ROOT
ATOM      1  C2  <0> d           4.159  -0.577  -0.041  0.00  0.00    -0.021 A 
ATOM      2  C3  <0> d           3.561   0.651  -0.028  0.00  0.00    -0.046 A 
ATOM      3  C4  <0> d           2.171   0.745  -0.015  0.00  0.00     0.062 A 
ATOM      4  C5  <0> d           1.397  -0.431  -0.014  0.00  0.00     0.014 A 
ATOM      5  C6  <0> d           2.032  -1.678  -0.026  0.00  0.00    -0.032 A 
ATOM      6  C7  <0> d           3.397  -1.741  -0.039  0.00  0.00     0.123 A 
ATOM      7  F1  <0> d           4.013  -2.944  -0.052  0.00  0.00    -0.206 F 
ATOM      8  C8  <0> d           0.002  -0.004   0.002  0.00  0.00     0.034 A 
ATOM      9  N1  <0> d          -0.016   1.298   0.009  0.00  0.00    -0.186 NA
ATOM     10  N2  <0> d           1.291   1.797  -0.001  0.00  0.00    -0.278 N 
ATOM     11  H1  <0> d           1.543   2.764   0.002  0.00  0.00     0.189 HD
ATOM     12  H5  <0> d           4.164   1.547  -0.029  0.00  0.00     0.088 H 
ATOM     13  H6  <0> d           1.447  -2.586  -0.025  0.00  0.00     0.089 H 
ATOM     14  H7  <0> d          -0.862  -0.652   0.006  0.00  0.00     0.118 H 
ENDROOT
BRANCH   1  15
ATOM     15  C1  <0> d           5.663  -0.672  -0.056  0.00  0.00    -0.048 C 
ATOM     16  H2  <0> d           6.036  -0.700   0.968  0.00  0.00     0.033 H 
ATOM     17  H3  <0> d           5.965  -1.580  -0.577  0.00  0.00     0.033 H 
ATOM     18  H4  <0> d           6.077   0.196  -0.569  0.00  0.00     0.033 H 
ENDBRANCH   1  15
TORSDOF 1
