REMARK  3 active torsions:
REMARK  status: ('A' for Active; 'I' for Inactive)
REMARK    1  A    between atoms: C4_4  and  C6_6 
REMARK    2  A    between atoms: C6_6  and  C7_7 
REMARK    3  A    between atoms: C7_7  and  C8_8 
ROOT
ATOM      1  C1  <0> d          -0.019   1.534   0.011  0.00  0.00    -0.065 C 
ATOM      2  C2  <0> d           1.453   1.995  -0.001  0.00  0.00    -0.065 C 
ATOM      3  C3  <0> d           2.232   0.792   0.586  0.00  0.00    -0.062 C 
ATOM      4  C4  <0> d           1.486  -0.425  -0.014  0.00  0.00    -0.054 C 
ATOM      5  C5  <0> d           0.002  -0.004   0.002  0.00  0.00    -0.062 C 
ATOM      6  H1  <0> d          -0.516   1.896   0.910  0.00  0.00     0.033 H 
ATOM      7  H2  <0> d          -0.533   1.906  -0.876  0.00  0.00     0.033 H 
ATOM      8  H3  <0> d           1.781   2.201  -1.020  0.00  0.00     0.033 H 
ATOM      9  H4  <0> d           1.582   2.877   0.627  0.00  0.00     0.033 H 
ATOM     10  H5  <0> d           3.272   0.808   0.259  0.00  0.00     0.033 H 
ATOM     11  H6  <0> d           2.169   0.786   1.675  0.00  0.00     0.033 H 
ATOM     12  H7  <0> d           1.819  -0.610  -1.036  0.00  0.00     0.040 H 
ATOM     13  H8  <0> d          -0.485  -0.389   0.898  0.00  0.00     0.033 H 
ATOM     14  H9  <0> d          -0.502  -0.379  -0.888  0.00  0.00     0.033 H 
ENDROOT
BRANCH   4  15
ATOM     15  C6  <0> d           1.701  -1.666   0.854  0.00  0.00    -0.053 C 
ATOM     16  H10 <0> d           2.769  -1.842   0.979  0.00  0.00     0.034 H 
ATOM     17  H11 <0> d           1.242  -1.511   1.830  0.00  0.00     0.034 H 
BRANCH  15  18
ATOM     18  C7  <0> d           1.060  -2.879   0.176  0.00  0.00     0.016 C 
ATOM     19  H12 <0> d          -0.009  -2.703   0.051  0.00  0.00     0.049 H 
ATOM     20  H13 <0> d           1.519  -3.034  -0.800  0.00  0.00     0.049 H 
BRANCH  18  21
ATOM     21  C8  <0> d           1.271  -4.102   1.031  0.00  0.00     0.172 C 
ATOM     22  O1  <0> d           1.878  -4.012   2.085  0.00  0.00    -0.648 OA
ATOM     23  O2  <0> d           0.835  -5.181   0.669  0.00  0.00    -0.648 OA
ENDBRANCH  18  21
ENDBRANCH  15  18
ENDBRANCH   4  15
TORSDOF 3
