REMARK  0 active torsions:
REMARK  status: ('A' for Active; 'I' for Inactive)
ROOT
ATOM      1  C1  <0> d          -1.588   3.004   0.033  0.00  0.00    -0.080 A 
ATOM      2  C2  <0> d          -1.250   1.651   0.017  0.00  0.00    -0.079 A 
ATOM      3  C3  <0> d          -0.013   1.076   0.008  0.00  0.00    -0.032 A 
ATOM      4  C4  <0> d           1.247   1.704  -0.001  0.00  0.00     0.211 A 
ATOM      5  O1  <0> d           2.217   0.956  -0.014  0.00  0.00    -0.285 OA
ATOM      6  C5  <0> d           1.534   3.087   0.004  0.00  0.00     0.193 A 
ATOM      7  C6  <0> d           0.637   4.148   0.017  0.00  0.00     0.147 A 
ATOM      8  C7  <0> d          -0.760   4.104   0.031  0.00  0.00    -0.045 A 
ATOM      9  O2  <0> d           1.189   5.387   0.018  0.00  0.00    -0.189 OA
ATOM     10  O3  <0> d           2.848   3.420  -0.008  0.00  0.00    -0.185 OA
ATOM     11  H1  <0> d          -2.646   3.219   0.044  0.00  0.00     0.083 H 
ATOM     12  H2  <0> d          -2.083   0.964   0.018  0.00  0.00     0.083 H 
ATOM     13  H3  <0> d           0.002  -0.004   0.002  0.00  0.00     0.089 H 
ATOM     14  H4  <0> d          -1.258   5.063   0.040  0.00  0.00     0.088 H 
ENDROOT
TORSDOF 0
