REMARK  4 active torsions:
REMARK  status: ('A' for Active; 'I' for Inactive)
REMARK    1  A    between atoms: C1_1  and  C2_2 
REMARK    2  A    between atoms: C2_2  and  C3_3 
REMARK    3  A    between atoms: C7_7  and  C9_9 
REMARK    4  A    between atoms: C9_9  and  C10_11 
ROOT
ATOM      1  C3  <0> d           3.653   1.995  -0.023  0.00  0.00    -0.058 A 
ATOM      2  C4  <0> d           3.630   3.379  -0.015  0.00  0.00    -0.077 A 
ATOM      3  C5  <0> d           2.424   4.058   0.000  0.00  0.00    -0.082 A 
ATOM      4  C6  <0> d           1.235   3.360   0.003  0.00  0.00    -0.070 A 
ATOM      5  C7  <0> d           1.250   1.961   0.001  0.00  0.00     0.010 A 
ATOM      6  C8  <0> d           2.473   1.282  -0.015  0.00  0.00    -0.064 A 
ATOM      7  H6  <0> d           4.558   3.932  -0.022  0.00  0.00     0.084 H 
ATOM      8  H7  <0> d           2.414   5.138   0.006  0.00  0.00     0.083 H 
ATOM      9  H8  <0> d           0.295   3.891   0.010  0.00  0.00     0.085 H 
ATOM     10  H9  <0> d           2.492   0.203  -0.020  0.00  0.00     0.085 H 
ENDROOT
BRANCH   1  11
ATOM     11  C2  <0> d           4.971   1.265  -0.040  0.00  0.00    -0.044 C 
ATOM     12  H4  <0> d           5.725   1.865   0.470  0.00  0.00     0.039 H 
ATOM     13  H5  <0> d           4.863   0.308   0.470  0.00  0.00     0.039 H 
BRANCH  11  14
ATOM     14  C1  <0> d           5.403   1.026  -1.488  0.00  0.00    -0.073 C 
ATOM     15  H1  <0> d           5.511   1.983  -1.998  0.00  0.00     0.028 H 
ATOM     16  H2  <0> d           6.357   0.498  -1.500  0.00  0.00     0.028 H 
ATOM     17  H3  <0> d           4.649   0.426  -1.997  0.00  0.00     0.028 H 
ENDBRANCH  11  14
ENDBRANCH   1  11
BRANCH   5  18
ATOM     18  C9  <0> d          -0.014   1.208   0.009  0.00  0.00     0.155 C 
ATOM     19  O1  <0> d           0.002  -0.004   0.002  0.00  0.00    -0.293 OA
BRANCH  18  20
ATOM     20  C10 <0> d          -1.330   1.944   0.019  0.00  0.00    -0.017 C 
ATOM     21  H10 <0> d          -1.616   2.102   0.964  0.00  0.00     0.038 H 
ATOM     22  H11 <0> d          -1.215   2.901  -0.490  0.00  0.00     0.038 H 
ATOM     23  H12 <0> d          -2.084   1.347  -0.495  0.00  0.00     0.038 H 
ENDBRANCH  18  20
ENDBRANCH   5  18
TORSDOF 4
