REMARK  2 active torsions:
REMARK  status: ('A' for Active; 'I' for Inactive)
REMARK    1  A    between atoms: C4_5  and  S1_6 
REMARK    2  A    between atoms: S1_6  and  N1_9 
ROOT
ATOM      1  C1  <0> d          -0.017   1.410   0.010  0.00  0.00    -0.037 A 
ATOM      2  C2  <0> d           1.265   1.817  -0.000  0.00  0.00     0.020 A 
ATOM      3  O1  <0> d           2.055   0.731  -0.014  0.00  0.00    -0.333 OA
ATOM      4  C3  <0> d           1.295  -0.376  -0.012  0.00  0.00     0.041 A 
ATOM      5  C4  <0> d           0.002  -0.004   0.002  0.00  0.00     0.103 A 
ATOM      6  H1  <0> d          -0.893   2.041   0.025  0.00  0.00     0.088 H 
ATOM      7  H2  <0> d           1.602   2.843   0.002  0.00  0.00     0.123 H 
ATOM      8  H3  <0> d           1.659  -1.393  -0.022  0.00  0.00     0.125 H 
ENDROOT
BRANCH   5   9
ATOM      9  S1  <0> d          -1.398  -1.073   0.010  0.00  0.00     0.258 S 
ATOM     10  O2  <0> d          -0.960  -2.312   0.550  0.00  0.00    -0.201 OA
ATOM     11  O3  <0> d          -2.472  -0.333   0.575  0.00  0.00    -0.201 OA
BRANCH   9  12
ATOM     12  N1  <0> d          -1.803  -1.362  -1.570  0.00  0.00    -0.324 N 
ATOM     13  H4  <0> d          -2.217  -2.203  -1.819  0.00  0.00     0.169 HD
ATOM     14  H5  <0> d          -1.626  -0.690  -2.247  0.00  0.00     0.169 HD
ENDBRANCH   9  12
ENDBRANCH   5   9
TORSDOF 2
