REMARK  5 active torsions:
REMARK  status: ('A' for Active; 'I' for Inactive)
REMARK    1  A    between atoms: C1_1  and  C2_2 
REMARK    2  A    between atoms: C2_2  and  C3_3 
REMARK    3  A    between atoms: C2_2  and  C5_6 
REMARK    4  A    between atoms: C2_2  and  O3_8 
REMARK    5  A    between atoms: C3_3  and  C4_4 
ROOT
ATOM      1  C2  <0> d           1.080   1.566  -0.176  0.00  0.00     0.151 C 
ENDROOT
BRANCH   1   2
ATOM      2  C1  <0> d           1.067   3.093  -0.090  0.00  0.00    -0.038 C 
ATOM      3  H1  <0> d           0.311   3.410   0.628  0.00  0.00     0.032 H 
ATOM      4  H2  <0> d           2.046   3.447   0.233  0.00  0.00     0.032 H 
ATOM      5  H3  <0> d           0.834   3.510  -1.070  0.00  0.00     0.032 H 
ENDBRANCH   1   2
BRANCH   1   6
ATOM      6  C3  <0> d           2.119   1.122  -1.208  0.00  0.00     0.053 C 
ATOM      7  H4  <0> d           1.855   1.525  -2.186  0.00  0.00     0.054 H 
ATOM      8  H5  <0> d           3.102   1.492  -0.915  0.00  0.00     0.054 H 
BRANCH   6   9
ATOM      9  C4  <0> d           2.148  -0.383  -1.276  0.00  0.00     0.176 C 
ATOM     10  O1  <0> d           1.491  -1.036  -0.500  0.00  0.00    -0.648 OA
ATOM     11  O4  <0> d           2.904  -0.999  -2.198  0.00  0.00    -0.648 OA
ENDBRANCH   6   9
ENDBRANCH   1   6
BRANCH   1  12
ATOM     12  C5  <0> d           1.431   0.989   1.171  0.00  0.00     0.209 C 
ATOM     13  O2  <0> d           2.576   0.697   1.423  0.00  0.00    -0.646 OA
ATOM     14  O5  <0> d           0.472   0.801   2.091  0.00  0.00    -0.646 OA
ENDBRANCH   1  12
BRANCH   1  15
ATOM     15  O3  <0> d          -0.212   1.100  -0.571  0.00  0.00    -0.379 OA
ATOM     16  H6  <0> d          -0.278   0.138  -0.646  0.00  0.00     0.211 HD
ENDBRANCH   1  15
TORSDOF 5
