REMARK  2 active torsions:
REMARK  status: ('A' for Active; 'I' for Inactive)
REMARK    1  A    between atoms: C1_1  and  C2_2 
REMARK    2  A    between atoms: C2_2  and  C3_3 
REMARK       I    between atoms: C3_3  and  N1_5 
ROOT
ATOM      1  C3  <0> d          -0.542   3.909  -1.994  0.00  0.00     0.219 C 
ATOM      2  O1  <0> d           0.069   3.503  -2.959  0.00  0.00    -0.273 OA
ATOM      3  N1  <0> d          -1.001   3.040  -1.071  0.00  0.00    -0.351 N 
ATOM      4  C4  <0> d          -0.765   1.599  -1.227  0.00  0.00     0.004 C 
ATOM      5  C5  <0> d          -0.013   1.086   0.008  0.00  0.00     0.005 C 
ATOM      6  C6  <0> d          -0.731   1.579   1.245  0.00  0.00     0.130 C 
ATOM      7  O2  <0> d          -1.069   0.809   2.112  0.00  0.00    -0.298 OA
ATOM      8  C7  <0> d          -1.015   3.060   1.370  0.00  0.00     0.005 C 
ATOM      9  C8  <0> d          -1.742   3.523   0.101  0.00  0.00     0.004 C 
ATOM     10  H6  <0> d          -1.729   1.077  -1.320  0.00  0.00     0.065 H 
ATOM     11  H7  <0> d          -0.163   1.421  -2.130  0.00  0.00     0.065 H 
ATOM     12  H8  <0> d           0.004  -0.014  -0.004  0.00  0.00     0.046 H 
ATOM     13  H9  <0> d           1.018   1.468  -0.005  0.00  0.00     0.046 H 
ATOM     14  H10 <0> d          -1.647   3.239   2.252  0.00  0.00     0.046 H 
ATOM     15  H11 <0> d          -0.067   3.607   1.481  0.00  0.00     0.046 H 
ATOM     16  H12 <0> d          -1.788   4.622   0.078  0.00  0.00     0.065 H 
ATOM     17  H13 <0> d          -2.762   3.113   0.085  0.00  0.00     0.065 H 
ENDROOT
BRANCH   1  18
ATOM     18  C2  <0> d          -0.789   5.386  -1.826  0.00  0.00     0.006 C 
ATOM     19  H4  <0> d          -0.332   5.730  -0.886  0.00  0.00     0.046 H 
ATOM     20  H5  <0> d          -1.873   5.576  -1.797  0.00  0.00     0.046 H 
BRANCH  18  21
ATOM     21  C1  <0> d          -0.170   6.144  -3.002  0.00  0.00    -0.068 C 
ATOM     22  H1  <0> d          -0.350   7.222  -2.879  0.00  0.00     0.028 H 
ATOM     23  H2  <0> d          -0.627   5.800  -3.941  0.00  0.00     0.028 H 
ATOM     24  H3  <0> d           0.913   5.954  -3.030  0.00  0.00     0.028 H 
ENDBRANCH  18  21
ENDBRANCH   1  18
TORSDOF 2
