REMARK  1 active torsions:
REMARK  status: ('A' for Active; 'I' for Inactive)
REMARK    1  A    between atoms: C1_1  and  C2_2 
ROOT
ATOM      1  C2  <0> d           0.491   1.235  -2.821  0.00  0.00    -0.058 C 
ATOM      2  C3  <0> d           0.536  -0.236  -2.424  0.00  0.00    -0.062 C 
ATOM      3  C4  <0> d          -0.522  -0.502  -1.336  0.00  0.00    -0.059 C 
ATOM      4  C5  <0> d           0.002  -0.004   0.002  0.00  0.00    -0.010 C 
ATOM      5  C6  <0> d          -0.018   1.507   0.010  0.00  0.00     0.127 C 
ATOM      6  O1  <0> d          -1.068   2.104   0.019  0.00  0.00    -0.298 OA
ATOM      7  C7  <0> d           1.277   2.253   0.002  0.00  0.00    -0.010 C 
ATOM      8  C8  <0> d           2.208   1.565  -1.009  0.00  0.00    -0.059 C 
ATOM      9  C9  <0> d           1.795   1.955  -2.426  0.00  0.00    -0.062 C 
ATOM     10  H4  <0> d          -0.349   1.716  -2.321  0.00  0.00     0.039 H 
ATOM     11  H5  <0> d           1.525  -0.478  -2.037  0.00  0.00     0.033 H 
ATOM     12  H6  <0> d           0.324  -0.855  -3.296  0.00  0.00     0.033 H 
ATOM     13  H7  <0> d          -0.721  -1.572  -1.274  0.00  0.00     0.033 H 
ATOM     14  H8  <0> d          -1.442   0.026  -1.585  0.00  0.00     0.033 H 
ATOM     15  H9  <0> d           0.938  -0.329   0.135  0.00  0.00     0.044 H 
ATOM     16  H10 <0> d          -0.631  -0.382   0.805  0.00  0.00     0.044 H 
ATOM     17  H11 <0> d           1.113   3.203  -0.263  0.00  0.00     0.044 H 
ATOM     18  H12 <0> d           1.726   2.225   0.995  0.00  0.00     0.044 H 
ATOM     19  H13 <0> d           2.135   0.484  -0.893  0.00  0.00     0.033 H 
ATOM     20  H14 <0> d           3.236   1.882  -0.830  0.00  0.00     0.033 H 
ATOM     21  H15 <0> d           2.586   1.676  -3.122  0.00  0.00     0.033 H 
ATOM     22  H16 <0> d           1.640   3.033  -2.473  0.00  0.00     0.033 H 
ENDROOT
BRANCH   1  23
ATOM     23  C1  <0> d           0.299   1.341  -4.336  0.00  0.00    -0.073 C 
ATOM     24  H1  <0> d          -0.636   0.857  -4.618  0.00  0.00     0.028 H 
ATOM     25  H2  <0> d           0.266   2.392  -4.625  0.00  0.00     0.028 H 
ATOM     26  H3  <0> d           1.129   0.850  -4.843  0.00  0.00     0.028 H 
ENDBRANCH   1  23
TORSDOF 1
