REMARK  6 active torsions:
REMARK  status: ('A' for Active; 'I' for Inactive)
REMARK    1  A    between atoms: C1_1  and  C2_2 
REMARK    2  A    between atoms: C2_2  and  C3_3 
REMARK    3  A    between atoms: C2_2  and  C4_4 
REMARK    4  A    between atoms: C2_2  and  O1_5 
REMARK    5  A    between atoms: O1_5  and  C5_6 
REMARK       I    between atoms: C5_6  and  N1_8 
REMARK    6  A    between atoms: N1_8  and  C6_9 
ROOT
ATOM      1  C2  <0> d          -1.282  -0.681   0.011  0.00  0.00     0.061 C 
ENDROOT
BRANCH   1   2
ATOM      2  C1  <0> d          -2.082  -0.274  -1.229  0.00  0.00    -0.048 C 
ATOM      3  H1  <0> d          -1.529  -0.554  -2.126  0.00  0.00     0.031 H 
ATOM      4  H2  <0> d          -3.046  -0.782  -1.222  0.00  0.00     0.031 H 
ATOM      5  H3  <0> d          -2.239   0.805  -1.222  0.00  0.00     0.031 H 
ENDBRANCH   1   2
BRANCH   1   6
ATOM      6  C3  <0> d          -1.062  -2.195   0.000  0.00  0.00    -0.048 C 
ATOM      7  H4  <0> d          -0.492  -2.485   0.883  0.00  0.00     0.031 H 
ATOM      8  H5  <0> d          -2.026  -2.703   0.007  0.00  0.00     0.031 H 
ATOM      9  H6  <0> d          -0.509  -2.475  -0.896  0.00  0.00     0.031 H 
ENDBRANCH   1   6
BRANCH   1  10
ATOM     10  C4  <0> d          -2.058  -0.287   1.270  0.00  0.00    -0.048 C 
ATOM     11  H7  <0> d          -2.215   0.791   1.277  0.00  0.00     0.031 H 
ATOM     12  H8  <0> d          -3.022  -0.795   1.276  0.00  0.00     0.031 H 
ATOM     13  H9  <0> d          -1.488  -0.577   2.152  0.00  0.00     0.031 H 
ENDBRANCH   1  10
BRANCH   1  14
ATOM     14  O1  <0> d           0.002  -0.004   0.002  0.00  0.00    -0.294 OA
BRANCH  14  15
ATOM     15  C5  <0> d          -0.016   1.342   0.009  0.00  0.00     0.361 C 
ATOM     16  O2  <0> d          -1.077   1.935   0.018  0.00  0.00    -0.238 OA
ATOM     17  N1  <0> d           1.142   2.032   0.002  0.00  0.00    -0.332 N 
ATOM     18  H10 <0> d           1.988   1.558  -0.009  0.00  0.00     0.165 HD
BRANCH  17  19
ATOM     19  C6  <0> d           1.122   3.497   0.010  0.00  0.00     0.014 A 
ATOM     20  C8  <0> d           2.348   4.217   0.574  0.00  0.00    -0.044 A 
ATOM     21  C7  <0> d           2.084   4.221  -0.934  0.00  0.00    -0.044 A 
ATOM     22  H14 <0> d           2.180   5.147   1.117  0.00  0.00     0.036 H 
ATOM     23  H15 <0> d           3.170   3.601   0.939  0.00  0.00     0.036 H 
ATOM     24  H12 <0> d           2.731   3.608  -1.560  0.00  0.00     0.036 H 
ATOM     25  H13 <0> d           1.742   5.154  -1.382  0.00  0.00     0.036 H 
ATOM     26  H11 <0> d           0.147   3.953   0.183  0.00  0.00     0.072 H 
ENDBRANCH  17  19
ENDBRANCH  14  15
ENDBRANCH   1  14
TORSDOF 6
