REMARK  4 active torsions:
REMARK  status: ('A' for Active; 'I' for Inactive)
REMARK    1  A    between atoms: C1_1  and  C2_2 
REMARK    2  A    between atoms: C2_2  and  C3_3 
REMARK    3  A    between atoms: C2_2  and  C4_4 
REMARK    4  A    between atoms: C4_4  and  C5_6 
ROOT
ATOM      1  C5  <0> d          -0.789   1.611   1.242  0.00  0.00     0.004 C 
ATOM      2  C6  <0> d          -0.013   1.086   0.008  0.00  0.00    -0.055 C 
ATOM      3  C7  <0> d          -0.809   1.622  -1.200  0.00  0.00    -0.064 C 
ATOM      4  C8  <0> d          -2.243   1.875  -0.703  0.00  0.00    -0.064 C 
ATOM      5  C9  <0> d          -2.268   1.485   0.789  0.00  0.00    -0.055 C 
ATOM      6  H8  <0> d          -0.549   2.559   1.450  0.00  0.00     0.051 H 
ATOM      7  H9  <0> d           0.002  -0.004   0.002  0.00  0.00     0.034 H 
ATOM      8  H10 <0> d           1.003   1.480   0.000  0.00  0.00     0.034 H 
ATOM      9  H11 <0> d          -0.367   2.552  -1.555  0.00  0.00     0.033 H 
ATOM     10  H12 <0> d          -0.816   0.882  -2.000  0.00  0.00     0.033 H 
ATOM     11  H13 <0> d          -2.497   2.929  -0.818  0.00  0.00     0.033 H 
ATOM     12  H14 <0> d          -2.946   1.258  -1.263  0.00  0.00     0.033 H 
ATOM     13  H15 <0> d          -2.899   2.172   1.353  0.00  0.00     0.034 H 
ATOM     14  H16 <0> d          -2.620   0.460   0.909  0.00  0.00     0.034 H 
ENDROOT
BRANCH   1  15
ATOM     15  C4  <0> d          -0.520   0.748   2.448  0.00  0.00     0.134 C 
ATOM     16  O1  <0> d          -0.185  -0.403   2.305  0.00  0.00    -0.297 OA
BRANCH  15  17
ATOM     17  C2  <0> d          -0.671   1.323   3.833  0.00  0.00    -0.003 C 
ATOM     18  H4  <0> d          -0.467   2.301   3.812  0.00  0.00     0.050 H 
BRANCH  17  19
ATOM     19  C1  <0> d          -2.106   1.111   4.319  0.00  0.00    -0.067 C 
ATOM     20  H1  <0> d          -2.329   0.044   4.342  0.00  0.00     0.028 H 
ATOM     21  H2  <0> d          -2.215   1.526   5.321  0.00  0.00     0.028 H 
ATOM     22  H3  <0> d          -2.797   1.612   3.642  0.00  0.00     0.028 H 
ENDBRANCH  17  19
BRANCH  17  23
ATOM     23  C3  <0> d           0.299   0.620   4.785  0.00  0.00    -0.067 C 
ATOM     24  H5  <0> d           1.321   0.770   4.438  0.00  0.00     0.028 H 
ATOM     25  H6  <0> d           0.190   1.035   5.787  0.00  0.00     0.028 H 
ATOM     26  H7  <0> d           0.077  -0.447   4.808  0.00  0.00     0.028 H 
ENDBRANCH  17  23
ENDBRANCH  15  17
ENDBRANCH   1  15
TORSDOF 4
