REMARK  5 active torsions:
REMARK  status: ('A' for Active; 'I' for Inactive)
REMARK    1  A    between atoms: C1_1  and  C2_2 
REMARK    2  A    between atoms: C2_2  and  C3_3 
REMARK    3  A    between atoms: C2_2  and  C6_8 
REMARK    4  A    between atoms: C3_3  and  C4_4 
REMARK    5  A    between atoms: C4_4  and  C5_5 
ROOT
ATOM      1  C2  <0> d           0.002  -0.004   0.002  0.00  0.00     0.124 C 
ENDROOT
BRANCH   1   2
ATOM      2  C1  <0> d          -0.018   1.503   0.010  0.00  0.00    -0.048 C 
ATOM      3  H1  <0> d           1.004   1.880   0.003  0.00  0.00     0.030 H 
ATOM      4  H2  <0> d          -0.545   1.864  -0.873  0.00  0.00     0.030 H 
ATOM      5  H3  <0> d          -0.529   1.854   0.907  0.00  0.00     0.030 H 
ENDBRANCH   1   2
BRANCH   1   6
ATOM      6  C3  <0> d           0.022  -0.664   1.130  0.00  0.00    -0.143 C 
BRANCH   6   7
ATOM      7  C4  <0> d           0.041  -1.323   2.259  0.00  0.00     0.101 C 
ATOM      8  H4  <0> d          -0.886  -1.608   2.733  0.00  0.00     0.078 H 
BRANCH   7   9
ATOM      9  C5  <0> d           1.271  -1.662   2.855  0.00  0.00     0.190 C 
ATOM     10  O1  <0> d           2.415  -1.310   2.269  0.00  0.00    -0.647 OA
ATOM     11  O2  <0> d           1.291  -2.334   4.005  0.00  0.00    -0.647 OA
ENDBRANCH   7   9
ENDBRANCH   6   7
ENDBRANCH   1   6
BRANCH   1  12
ATOM     12  C6  <0> d          -0.000  -0.702  -1.221  0.00  0.00     0.195 C 
ATOM     13  O3  <0> d          -0.020  -0.029  -2.372  0.00  0.00    -0.647 OA
ATOM     14  O4  <0> d           0.018  -2.034  -1.229  0.00  0.00    -0.647 OA
ENDBRANCH   1  12
TORSDOF 5
