REMARK  7 active torsions:
REMARK  status: ('A' for Active; 'I' for Inactive)
REMARK    1  A    between atoms: C1_1  and  C2_2 
REMARK    2  A    between atoms: C2_2  and  C3_4 
REMARK    3  A    between atoms: C2_2  and  O2_10 
REMARK    4  A    between atoms: C3_4  and  C4_5 
REMARK    5  A    between atoms: C3_4  and  C5_6 
REMARK    6  A    between atoms: C5_6  and  C6_8 
REMARK    7  A    between atoms: C5_6  and  O1_9 
ROOT
ATOM      1  C3  <0> d           0.713  -0.402   1.297  0.00  0.00    -0.009 C 
ATOM      2  H6  <0> d           0.200  -0.208   2.239  0.00  0.00     0.047 H 
ENDROOT
BRANCH   1   3
ATOM      3  C2  <0> d          -0.094   0.198   0.144  0.00  0.00     0.037 C 
ATOM      4  H1  <0> d          -0.110   1.284   0.237  0.00  0.00     0.083 H 
BRANCH   3   5
ATOM      5  C1  <0> d          -1.526  -0.340   0.191  0.00  0.00    -0.052 C 
ATOM      6  H3  <0> d          -1.950  -0.158   1.178  0.00  0.00     0.030 H 
ATOM      7  H4  <0> d          -2.129   0.168  -0.562  0.00  0.00     0.030 H 
ATOM      8  H5  <0> d          -1.519  -1.411  -0.011  0.00  0.00     0.030 H 
ENDBRANCH   3   5
BRANCH   3   9
ATOM      9  O2  <0> d           0.510  -0.164  -1.099  0.00  0.00    -0.396 OA
ATOM     10  H14 <0> d           0.050   0.182  -1.876  0.00  0.00     0.210 HD
ENDBRANCH   3   9
ENDBRANCH   1   3
BRANCH   1  11
ATOM     11  C4  <0> d           0.850  -1.912   1.093  0.00  0.00    -0.068 C 
ATOM     12  H7  <0> d           1.426  -2.339   1.914  0.00  0.00     0.028 H 
ATOM     13  H8  <0> d          -0.140  -2.366   1.068  0.00  0.00     0.028 H 
ATOM     14  H9  <0> d           1.363  -2.106   0.151  0.00  0.00     0.028 H 
ENDBRANCH   1  11
BRANCH   1  15
ATOM     15  C5  <0> d           2.103   0.237   1.332  0.00  0.00     0.037 C 
ATOM     16  H2  <0> d           2.653  -0.040   0.432  0.00  0.00     0.083 H 
BRANCH  15  17
ATOM     17  C6  <0> d           2.861  -0.260   2.565  0.00  0.00    -0.052 C 
ATOM     18  H10 <0> d           2.961  -1.344   2.518  0.00  0.00     0.030 H 
ATOM     19  H11 <0> d           3.852   0.195   2.590  0.00  0.00     0.030 H 
ATOM     20  H12 <0> d           2.312   0.016   3.465  0.00  0.00     0.030 H 
ENDBRANCH  15  17
BRANCH  15  21
ATOM     21  O1  <0> d           1.973   1.658   1.394  0.00  0.00    -0.396 OA
ATOM     22  H13 <0> d           2.817   2.130   1.419  0.00  0.00     0.210 HD
ENDBRANCH  15  21
ENDBRANCH   1  15
TORSDOF 7
