REMARK  3 active torsions:
REMARK  status: ('A' for Active; 'I' for Inactive)
REMARK    1  A    between atoms: C3_3  and  O1_8 
REMARK    2  A    between atoms: C6_6  and  N1_7 
REMARK    3  A    between atoms: O1_8  and  C7_9 
ROOT
ATOM      1  C7  <0> d           2.511  -2.674  -0.036  0.00  0.00     0.104 C 
ATOM      2  C8  <0> d           2.337  -4.135  -0.043  0.00  0.00     0.085 C 
ATOM      3  N2  <0> d           2.203  -5.263  -0.047  0.00  0.00    -0.195 NA
ATOM      4  H7  <0> d           3.056  -2.369  -0.930  0.00  0.00     0.097 H 
ATOM      5  H8  <0> d           3.073  -2.378   0.850  0.00  0.00     0.097 H 
ENDROOT
BRANCH   1   6
ATOM      6  O1  <0> d           1.230  -2.041  -0.021  0.00  0.00    -0.338 OA
BRANCH   6   7
ATOM      7  C3  <0> d           1.212  -0.682  -0.013  0.00  0.00     0.070 A 
ATOM      8  C2  <0> d           0.002  -0.004   0.002  0.00  0.00    -0.049 A 
ATOM      9  C1  <0> d          -0.017   1.377   0.010  0.00  0.00    -0.055 A 
ATOM     10  H2  <0> d          -0.926  -0.557   0.008  0.00  0.00     0.087 H 
ATOM     11  C6  <0> d           1.177   2.087   0.002  0.00  0.00     0.025 A 
ATOM     12  H1  <0> d          -0.959   1.904   0.017  0.00  0.00     0.087 H 
ATOM     13  C5  <0> d           2.388   1.408  -0.013  0.00  0.00    -0.055 A 
ATOM     14  C4  <0> d           2.405   0.027  -0.020  0.00  0.00    -0.049 A 
ATOM     15  H4  <0> d           3.316   1.960  -0.018  0.00  0.00     0.087 H 
ATOM     16  H3  <0> d           3.346  -0.501  -0.031  0.00  0.00     0.087 H 
BRANCH  11  17
ATOM     17  N1  <0> d           1.159   3.486   0.009  0.00  0.00    -0.399 N 
ATOM     18  H5  <0> d           0.312   3.960   0.020  0.00  0.00     0.156 HD
ATOM     19  H6  <0> d           1.992   3.982   0.004  0.00  0.00     0.156 HD
ENDBRANCH  11  17
ENDBRANCH   6   7
ENDBRANCH   1   6
TORSDOF 3
