REMARK  5 active torsions:
REMARK  status: ('A' for Active; 'I' for Inactive)
REMARK    1  A    between atoms: C1_1  and  C2_2 
REMARK    2  A    between atoms: C2_2  and  O1_3 
REMARK    3  A    between atoms: O1_3  and  C3_4 
REMARK    4  A    between atoms: C3_4  and  C4_6 
REMARK    5  A    between atoms: C5_7  and  N1_11 
ROOT
ATOM      1  C4  <0> d           2.212   0.916  -0.378  0.00  0.00     0.039 C 
ATOM      2  C5  <0> d           1.436   1.951  -0.001  0.00  0.00     0.015 C 
ATOM      3  C6  <0> d          -0.019   1.541   0.011  0.00  0.00    -0.026 C 
ATOM      4  C7  <0> d           0.002  -0.004   0.002  0.00  0.00    -0.056 C 
ATOM      5  C8  <0> d           1.365  -0.303  -0.662  0.00  0.00    -0.033 C 
ATOM      6  H6  <0> d          -0.504   1.936   0.915  0.00  0.00     0.042 H 
ATOM      7  H7  <0> d          -0.521   1.945  -0.881  0.00  0.00     0.042 H 
ATOM      8  H8  <0> d          -0.066  -0.377   1.034  0.00  0.00     0.034 H 
ATOM      9  H9  <0> d          -0.852  -0.379  -0.580  0.00  0.00     0.034 H 
ATOM     10  H10 <0> d           1.267  -0.436  -1.749  0.00  0.00     0.040 H 
ATOM     11  H11 <0> d           1.844  -1.192  -0.225  0.00  0.00     0.040 H 
ENDROOT
BRANCH   1  12
ATOM     12  C3  <0> d           3.619   0.964  -0.493  0.00  0.00     0.291 C 
ATOM     13  O2  <0> d           4.215   1.995  -0.242  0.00  0.00    -0.260 OA
BRANCH  12  14
ATOM     14  O1  <0> d           4.302  -0.133  -0.880  0.00  0.00    -0.318 OA
BRANCH  14  15
ATOM     15  C2  <0> d           5.723  -0.013  -0.974  0.00  0.00     0.026 C 
ATOM     16  H4  <0> d           6.134   0.259   0.009  0.00  0.00     0.074 H 
ATOM     17  H5  <0> d           5.977   0.767  -1.707  0.00  0.00     0.074 H 
BRANCH  15  18
ATOM     18  C1  <0> d           6.319  -1.348  -1.424  0.00  0.00    -0.056 C 
ATOM     19  H1  <0> d           7.413  -1.256  -1.497  0.00  0.00     0.030 H 
ATOM     20  H2  <0> d           5.908  -1.621  -2.407  0.00  0.00     0.030 H 
ATOM     21  H3  <0> d           6.065  -2.129  -0.691  0.00  0.00     0.030 H 
ENDBRANCH  15  18
ENDBRANCH  14  15
ENDBRANCH  12  14
ENDBRANCH   1  12
BRANCH   2  22
ATOM     22  N1  <0> d           1.898   3.194   0.325  0.00  0.00    -0.402 N 
ATOM     23  H12 <0> d           1.191   3.983   0.623  0.00  0.00     0.156 HD
ATOM     24  H13 <0> d           2.977   3.407   0.289  0.00  0.00     0.156 HD
ENDBRANCH   2  22
TORSDOF 5
