REMARK  7 active torsions:
REMARK  status: ('A' for Active; 'I' for Inactive)
REMARK    1  A    between atoms: C1_1  and  C2_2 
REMARK    2  A    between atoms: C2_2  and  O1_3 
REMARK    3  A    between atoms: O1_3  and  C3_4 
REMARK    4  A    between atoms: C3_4  and  C4_6 
REMARK    5  A    between atoms: C3_4  and  O2_7 
REMARK    6  A    between atoms: O2_7  and  C5_8 
REMARK    7  A    between atoms: C5_8  and  C6_9 
ROOT
ATOM      1  C6  <0> d          -2.692   0.111   2.091  0.00  0.00    -0.091 C 
ATOM      2  C7  <0> d          -3.321   0.110   3.082  0.00  0.00    -0.152 C 
ATOM      3  H12 <0> d          -3.884   0.109   3.969  0.00  0.00     0.166 H 
ENDROOT
BRANCH   1   4
ATOM      4  C5  <0> d          -1.904   0.113   0.848  0.00  0.00     0.076 C 
ATOM      5  H10 <0> d          -2.546   0.384   0.010  0.00  0.00     0.094 H 
ATOM      6  H11 <0> d          -1.488  -0.880   0.680  0.00  0.00     0.094 H 
BRANCH   4   7
ATOM      7  O2  <0> d          -0.841   1.062   0.960  0.00  0.00    -0.350 OA
BRANCH   7   8
ATOM      8  C3  <0> d           0.078   1.037  -0.135  0.00  0.00     0.128 C 
ATOM      9  H1  <0> d           0.330   0.004  -0.373  0.00  0.00     0.128 H 
BRANCH   8  10
ATOM     10  O1  <0> d          -0.522   1.656  -1.274  0.00  0.00    -0.362 OA
BRANCH  10  11
ATOM     11  C2  <0> d          -1.329   0.775  -2.057  0.00  0.00     0.019 C 
ATOM     12  H5  <0> d          -0.748  -0.106  -2.328  0.00  0.00     0.073 H 
ATOM     13  H6  <0> d          -2.202   0.471  -1.479  0.00  0.00     0.073 H 
BRANCH  11  14
ATOM     14  C1  <0> d          -1.786   1.495  -3.328  0.00  0.00    -0.056 C 
ATOM     15  H2  <0> d          -2.401   0.822  -3.925  0.00  0.00     0.030 H 
ATOM     16  H3  <0> d          -2.367   2.376  -3.057  0.00  0.00     0.030 H 
ATOM     17  H4  <0> d          -0.913   1.799  -3.906  0.00  0.00     0.030 H 
ENDBRANCH  11  14
ENDBRANCH  10  11
ENDBRANCH   8  10
BRANCH   8  18
ATOM     18  C4  <0> d           1.349   1.797   0.249  0.00  0.00    -0.031 C 
ATOM     19  H7  <0> d           1.806   1.325   1.119  0.00  0.00     0.034 H 
ATOM     20  H8  <0> d           2.050   1.778  -0.586  0.00  0.00     0.034 H 
ATOM     21  H9  <0> d           1.096   2.830   0.488  0.00  0.00     0.034 H 
ENDBRANCH   8  18
ENDBRANCH   7   8
ENDBRANCH   4   7
ENDBRANCH   1   4
TORSDOF 7
