REMARK  2 active torsions:
REMARK  status: ('A' for Active; 'I' for Inactive)
REMARK    1  A    between atoms: C1_1  and  N1_2 
REMARK    2  A    between atoms: C2_3  and  N5_7 
ROOT
ATOM      1  N1  <0> d          -1.075  -0.823   0.013  0.00  0.00    -0.083 N 
ATOM      2  C2  <0> d           0.002  -0.004   0.002  0.00  0.00     0.737 A 
ATOM      3  N2  <0> d           1.070  -0.770  -0.012  0.00  0.00     0.065 NA
ATOM      4  N3  <0> d           0.735  -2.010  -0.015  0.00  0.00    -0.008 NA
ATOM      5  N4  <0> d          -0.549  -2.126  -0.004  0.00  0.00    -0.031 NA
ENDROOT
BRANCH   1   6
ATOM      6  C1  <0> d          -2.488  -0.433   0.036  0.00  0.00     0.021 C 
ATOM      7  H1  <0> d          -2.566   0.664   0.045  0.00  0.00     0.060 H 
ATOM      8  H2  <0> d          -2.966  -0.843   0.938  0.00  0.00     0.060 H 
ATOM      9  H3  <0> d          -2.991  -0.829  -0.858  0.00  0.00     0.060 H 
ENDBRANCH   1   6
BRANCH   2  10
ATOM     10  N5  <0> d          -0.017   1.380   0.010  0.00  0.00    -0.230 N 
ATOM     11  H4  <0> d           0.928   1.943  -0.001  0.00  0.00     0.174 HD
ATOM     12  H5  <0> d          -0.977   1.917   0.026  0.00  0.00     0.174 HD
ENDBRANCH   2  10
TORSDOF 2
