REMARK  4 active torsions:
REMARK  status: ('A' for Active; 'I' for Inactive)
REMARK    1  A    between atoms: C1_1  and  N1_2 
REMARK       I    between atoms: N1_2  and  C2_3 
REMARK    2  A    between atoms: C2_3  and  C3_5 
REMARK    3  A    between atoms: C4_6  and  N4_11 
REMARK    4  A    between atoms: N3_9  and  C6_10 
ROOT
ATOM      1  C3  <0> d          -2.346   0.810   0.006  0.00  0.00     0.149 A 
ATOM      2  C4  <0> d          -3.666   1.235  -0.041  0.00  0.00     0.155 A 
ATOM      3  N2  <0> d          -4.439   0.142  -0.035  0.00  0.00    -0.224 NA
ATOM      4  C5  <0> d          -3.692  -0.930   0.013  0.00  0.00     0.068 A 
ATOM      5  N3  <0> d          -2.394  -0.578   0.035  0.00  0.00    -0.338 N 
ATOM      6  H5  <0> d          -4.062  -1.944   0.028  0.00  0.00     0.143 H 
ENDROOT
BRANCH   1   7
ATOM      7  C2  <0> d          -1.187   1.624   0.017  0.00  0.00     0.271 C 
ATOM      8  N1  <0> d          -0.552   1.876   1.178  0.00  0.00    -0.360 N 
ATOM      9  H4  <0> d          -0.927   1.560   2.015  0.00  0.00     0.162 HD
ATOM     10  O1  <0> d          -0.765   2.096  -1.024  0.00  0.00    -0.266 OA
BRANCH   8  11
ATOM     11  C1  <0> d           0.709   2.622   1.176  0.00  0.00    -0.018 C 
ATOM     12  H1  <0> d           1.447   2.087   0.579  0.00  0.00     0.056 H 
ATOM     13  H2  <0> d           0.545   3.612   0.750  0.00  0.00     0.056 H 
ATOM     14  H3  <0> d           1.073   2.723   2.199  0.00  0.00     0.056 H 
ENDBRANCH   8  11
ENDBRANCH   1   7
BRANCH   5  15
ATOM     15  C6  <0> d          -1.247  -1.488   0.083  0.00  0.00    -0.013 C 
ATOM     16  H6  <0> d          -1.044  -1.761   1.119  0.00  0.00     0.057 H 
ATOM     17  H7  <0> d          -1.471  -2.385  -0.493  0.00  0.00     0.057 H 
ATOM     18  H8  <0> d          -0.373  -0.993  -0.340  0.00  0.00     0.057 H 
ENDBRANCH   5  15
BRANCH   2  19
ATOM     19  N4  <0> d          -4.104   2.551  -0.087  0.00  0.00    -0.382 N 
ATOM     20  H9  <0> d          -3.461   3.277  -0.087  0.00  0.00     0.157 HD
ATOM     21  H10 <0> d          -5.054   2.745  -0.118  0.00  0.00     0.157 HD
ENDBRANCH   2  19
TORSDOF 4
