REMARK  3 active torsions:
REMARK  status: ('A' for Active; 'I' for Inactive)
REMARK    1  A    between atoms: C1_1  and  N1_2 
REMARK    2  A    between atoms: N1_2  and  C2_3 
REMARK    3  A    between atoms: N1_2  and  C3_4 
ROOT
ATOM      1  C3  <0> d           1.243  -0.640  -0.013  0.00  0.00     0.147 A 
ATOM      2  C4  <0> d           0.002  -0.004   0.002  0.00  0.00    -0.034 A 
ATOM      3  C5  <0> d          -0.017   1.381   0.010  0.00  0.00    -0.038 A 
ATOM      4  C6  <0> d           1.201   2.050   0.002  0.00  0.00     0.148 A 
ATOM      5  N2  <0> d           2.329   1.367  -0.013  0.00  0.00    -0.136 NA
ATOM      6  N3  <0> d           2.352   0.084  -0.020  0.00  0.00    -0.131 NA
ATOM      7 Cl1  <0> d           1.237   3.786   0.010  0.00  0.00    -0.061 Cl
ATOM      8  H7  <0> d          -0.916  -0.574   0.008  0.00  0.00     0.089 H 
ATOM      9  H8  <0> d          -0.950   1.924   0.017  0.00  0.00     0.088 H 
ENDROOT
BRANCH   1  10
ATOM     10  N1  <0> d           1.316  -2.030  -0.021  0.00  0.00    -0.373 N 
BRANCH  10  11
ATOM     11  C1  <0> d           0.092  -2.827  -0.124  0.00  0.00    -0.018 C 
ATOM     12  H1  <0> d          -0.133  -3.015  -1.174  0.00  0.00     0.056 H 
ATOM     13  H2  <0> d           0.232  -3.776   0.394  0.00  0.00     0.056 H 
ATOM     14  H3  <0> d          -0.735  -2.283   0.333  0.00  0.00     0.056 H 
ENDBRANCH  10  11
BRANCH  10  15
ATOM     15  C2  <0> d           2.618  -2.695   0.074  0.00  0.00    -0.018 C 
ATOM     16  H4  <0> d           3.406  -1.945   0.142  0.00  0.00     0.056 H 
ATOM     17  H5  <0> d           2.639  -3.326   0.962  0.00  0.00     0.056 H 
ATOM     18  H6  <0> d           2.777  -3.309  -0.813  0.00  0.00     0.056 H 
ENDBRANCH  10  15
ENDBRANCH   1  10
TORSDOF 3
