REMARK  1 active torsions:
REMARK  status: ('A' for Active; 'I' for Inactive)
REMARK    1  A    between atoms: C2_2  and  C7_9 
ROOT
ATOM      1  C7  <0> d          -0.071   5.350   0.029  0.00  0.00     0.039 C 
ATOM      2  C8  <0> d          -0.090   5.847  -1.357  0.00  0.00     0.063 C 
ATOM      3  N1  <0> d          -0.105   6.230  -2.426  0.00  0.00    -0.197 NA
ATOM      4  H4  <0> d          -0.961   5.699   0.552  0.00  0.00     0.062 H 
ATOM      5  H5  <0> d           0.819   5.723   0.536  0.00  0.00     0.062 H 
ENDROOT
BRANCH   1   6
ATOM      6  C2  <0> d          -0.050   3.843   0.022  0.00  0.00    -0.039 A 
ATOM      7  C1  <0> d          -1.238   3.137   0.029  0.00  0.00    -0.038 A 
ATOM      8  C6  <0> d          -1.220   1.752   0.017  0.00  0.00     0.119 A 
ATOM      9  H1  <0> d          -2.180   3.664   0.040  0.00  0.00     0.089 H 
ATOM     10  C5  <0> d          -0.013   1.076   0.008  0.00  0.00    -0.009 A 
ATOM     11  F1  <0> d          -2.381   1.062   0.019  0.00  0.00    -0.206 F 
ATOM     12  C4  <0> d           1.176   1.785   0.000  0.00  0.00     0.119 A 
ATOM     13  H3  <0> d           0.002  -0.004   0.002  0.00  0.00     0.092 H 
ATOM     14  C3  <0> d           1.156   3.169   0.008  0.00  0.00    -0.038 A 
ATOM     15  F2  <0> d           2.356   1.126  -0.014  0.00  0.00    -0.206 F 
ATOM     16  H2  <0> d           2.084   3.723   0.002  0.00  0.00     0.089 H 
ENDBRANCH   1   6
TORSDOF 1
