REMARK  4 active torsions:
REMARK  status: ('A' for Active; 'I' for Inactive)
REMARK    1  A    between atoms: C1_1  and  C2_2 
REMARK    2  A    between atoms: C2_2  and  C4_4 
REMARK    3  A    between atoms: C4_4  and  O1_5 
REMARK    4  A    between atoms: O1_5  and  C5_6 
ROOT
ATOM      1  O1  <0> d          -0.069   5.201   0.029  0.00  0.00    -0.347 OA
ENDROOT
BRANCH   1   2
ATOM      2  C4  <0> d          -1.350   5.832   0.045  0.00  0.00     0.045 C 
ATOM      3  H6  <0> d          -1.912   5.536  -0.841  0.00  0.00     0.082 H 
ATOM      4  H7  <0> d          -1.895   5.527   0.939  0.00  0.00     0.082 H 
BRANCH   2   5
ATOM      5  C2  <0> d          -1.173   7.329   0.050  0.00  0.00    -0.069 C 
ATOM      6  C3  <0> d           0.030   7.846   0.041  0.00  0.00    -0.117 C 
ATOM      7  H4  <0> d           0.896   7.200   0.029  0.00  0.00     0.067 H 
ATOM      8  H5  <0> d           0.157   8.918   0.044  0.00  0.00     0.067 H 
BRANCH   5   9
ATOM      9  C1  <0> d          -2.381   8.230   0.067  0.00  0.00    -0.053 C 
ATOM     10  H1  <0> d          -2.662   8.443   1.098  0.00  0.00     0.033 H 
ATOM     11  H2  <0> d          -2.144   9.163  -0.445  0.00  0.00     0.033 H 
ATOM     12  H3  <0> d          -3.209   7.737  -0.442  0.00  0.00     0.033 H 
ENDBRANCH   5   9
ENDBRANCH   2   5
ENDBRANCH   1   2
BRANCH   1  13
ATOM     13  C5  <0> d          -0.050   3.842   0.023  0.00  0.00     0.069 A 
ATOM     14  C10 <0> d          -1.241   3.131   0.031  0.00  0.00    -0.051 A 
ATOM     15  C9  <0> d          -1.220   1.750   0.017  0.00  0.00    -0.080 A 
ATOM     16  H12 <0> d          -2.185   3.657   0.042  0.00  0.00     0.087 H 
ATOM     17  C8  <0> d          -0.013   1.076   0.008  0.00  0.00    -0.083 A 
ATOM     18  H11 <0> d          -2.147   1.196   0.018  0.00  0.00     0.083 H 
ATOM     19  C7  <0> d           1.176   1.782   0.000  0.00  0.00    -0.080 A 
ATOM     20  H10 <0> d           0.002  -0.004   0.002  0.00  0.00     0.083 H 
ATOM     21  C6  <0> d           1.160   3.163   0.007  0.00  0.00    -0.051 A 
ATOM     22  H9  <0> d           2.118   1.254  -0.011  0.00  0.00     0.083 H 
ATOM     23  H8  <0> d           2.089   3.715   0.001  0.00  0.00     0.087 H 
ENDBRANCH   1  13
TORSDOF 4
