REMARK  1 active torsions:
REMARK  status: ('A' for Active; 'I' for Inactive)
REMARK    1  A    between atoms: C2_2  and  N1_3 
ROOT
ATOM      1  N1  <0> d          -2.362   1.005   0.019  0.00  0.00    -0.327 N 
ATOM      2  C3  <0> d          -3.627   1.535   0.033  0.00  0.00     0.002 A 
ATOM      3  C4  <0> d          -4.485   0.497   0.027  0.00  0.00     0.019 A 
ATOM      4  N2  <0> d          -3.770  -0.637   0.018  0.00  0.00    -0.254 NA
ATOM      5  C5  <0> d          -2.497  -0.347   0.013  0.00  0.00     0.069 A 
ATOM      6  H4  <0> d          -3.885   2.584   0.045  0.00  0.00     0.114 H 
ATOM      7  H5  <0> d          -5.563   0.567   0.033  0.00  0.00     0.117 H 
ATOM      8  H6  <0> d          -1.688  -1.062   0.005  0.00  0.00     0.144 H 
ENDROOT
BRANCH   1   9
ATOM      9  C2  <0> d          -1.163   1.719   0.017  0.00  0.00    -0.024 C 
ATOM     10  C1  <0> d          -0.013   1.076   0.008  0.00  0.00    -0.106 C 
ATOM     11  H1  <0> d           0.002  -0.004   0.002  0.00  0.00     0.068 H 
ATOM     12  H2  <0> d           0.915   1.629   0.002  0.00  0.00     0.068 H 
ATOM     13  H3  <0> d          -1.178   2.799   0.023  0.00  0.00     0.110 H 
ENDBRANCH   1   9
TORSDOF 1
