REMARK  2 active torsions:
REMARK  status: ('A' for Active; 'I' for Inactive)
REMARK    1  A    between atoms: C6_6  and  N3_12 
REMARK    2  A    between atoms: C8_9  and  N2_11 
ROOT
ATOM      1  C1  <0> d           3.581   1.913  -0.021  0.00  0.00    -0.080 A 
ATOM      2  C2  <0> d           2.437   1.174  -0.015  0.00  0.00    -0.071 A 
ATOM      3  C3  <0> d           1.188   1.815   0.001  0.00  0.00    -0.005 A 
ATOM      4  C4  <0> d          -0.013   1.076   0.008  0.00  0.00    -0.067 A 
ATOM      5  C5  <0> d          -1.191   1.758   0.017  0.00  0.00    -0.038 A 
ATOM      6  C6  <0> d          -1.187   3.160   0.029  0.00  0.00     0.121 A 
ATOM      7  N1  <0> d          -0.062   3.845   0.022  0.00  0.00    -0.229 NA
ATOM      8  C7  <0> d           1.125   3.229   0.008  0.00  0.00     0.095 A 
ATOM      9  C8  <0> d           2.327   3.969   0.001  0.00  0.00     0.055 A 
ATOM     10  C9  <0> d           3.534   3.304  -0.014  0.00  0.00    -0.055 A 
ATOM     11  H1  <0> d           4.538   1.413  -0.033  0.00  0.00     0.083 H 
ATOM     12  H2  <0> d           2.490   0.095  -0.021  0.00  0.00     0.084 H 
ATOM     13  H3  <0> d           0.002  -0.004   0.002  0.00  0.00     0.085 H 
ATOM     14  H4  <0> d          -2.128   1.221   0.019  0.00  0.00     0.089 H 
ATOM     15  H5  <0> d           4.455   3.869  -0.020  0.00  0.00     0.087 H 
ENDROOT
BRANCH   6  16
ATOM     16  N3  <0> d          -2.395   3.843   0.042  0.00  0.00    -0.384 N 
ATOM     17  H8  <0> d          -2.405   4.813   0.047  0.00  0.00     0.157 HD
ATOM     18  H9  <0> d          -3.230   3.349   0.047  0.00  0.00     0.157 HD
ENDBRANCH   6  16
BRANCH   9  19
ATOM     19  N2  <0> d           2.294   5.364   0.007  0.00  0.00    -0.397 N 
ATOM     20  H6  <0> d           1.442   5.829   0.018  0.00  0.00     0.156 HD
ATOM     21  H7  <0> d           3.122   5.869   0.002  0.00  0.00     0.156 HD
ENDBRANCH   9  19
TORSDOF 2
