REMARK  1 active torsions:
REMARK  status: ('A' for Active; 'I' for Inactive)
REMARK    1  A    between atoms: C2_2  and  N5_11 
ROOT
ATOM      1  C1  <0> d          -2.948   3.769   0.048  0.00  0.00     0.051 A 
ATOM      2  C2  <0> d          -1.605   4.128   0.038  0.00  0.00     0.078 A 
ATOM      3  C3  <0> d          -0.657   3.090   0.024  0.00  0.00     0.133 A 
ATOM      4  C4  <0> d          -1.132   1.765   0.016  0.00  0.00     0.182 A 
ATOM      5  N1  <0> d          -0.011   0.966   0.007  0.00  0.00    -0.332 N 
ATOM      6  H1  <0> d           0.003  -0.034   0.006  0.00  0.00     0.168 HD
ATOM      7  C5  <0> d           1.075   1.786   0.001  0.00  0.00     0.066 A 
ATOM      8  N2  <0> d           0.694   3.031   0.011  0.00  0.00    -0.238 NA
ATOM      9  N3  <0> d          -2.436   1.538   0.033  0.00  0.00    -0.130 NA
ATOM     10  N4  <0> d          -3.293   2.495   0.045  0.00  0.00    -0.158 NA
ATOM     11  H2  <0> d          -3.710   4.534   0.059  0.00  0.00     0.121 H 
ATOM     12  H3  <0> d           2.102   1.453  -0.010  0.00  0.00     0.143 H 
ENDROOT
BRANCH   2  13
ATOM     13  N5  <0> d          -1.213   5.464   0.041  0.00  0.00    -0.396 N 
ATOM     14  H4  <0> d          -0.271   5.693   0.033  0.00  0.00     0.156 HD
ATOM     15  H5  <0> d          -1.883   6.165   0.050  0.00  0.00     0.156 HD
ENDBRANCH   2  13
TORSDOF 1
