REMARK  4 active torsions:
REMARK  status: ('A' for Active; 'I' for Inactive)
REMARK    1  A    between atoms: C1_1  and  C2_2 
REMARK    2  A    between atoms: C2_2  and  C3_3 
REMARK    3  A    between atoms: C5_6  and  C8_12 
REMARK    4  A    between atoms: C6_8  and  C7_11 
ROOT
ATOM      1  C3  <0> d           0.142   2.997   1.440  0.00  0.00     0.039 C 
ATOM      2  H1  <0> d          -0.396   3.740   0.851  0.00  0.00     0.083 H 
ATOM      3  C4  <0> d          -0.571   1.624   1.354  0.00  0.00    -0.036 C 
ATOM      4  C5  <0> d          -0.013   1.086   0.008  0.00  0.00    -0.030 C 
ATOM      5  H2  <0> d           0.002  -0.004   0.002  0.00  0.00     0.043 H 
ATOM      6  C6  <0> d           1.422   1.655  -0.003  0.00  0.00     0.038 C 
ATOM      7  H3  <0> d           2.124   0.894   0.338  0.00  0.00     0.083 H 
ATOM      8  O1  <0> d           1.450   2.775   0.889  0.00  0.00    -0.381 OA
ATOM      9  H9  <0> d          -1.653   1.745   1.310  0.00  0.00     0.037 H 
ATOM     10  H10 <0> d          -0.283   0.979   2.184  0.00  0.00     0.037 H 
ENDROOT
BRANCH   1  11
ATOM     11  C2  <0> d           0.250   3.451   2.897  0.00  0.00    -0.044 C 
ATOM     12  H7  <0> d          -0.747   3.504   3.336  0.00  0.00     0.036 H 
ATOM     13  H8  <0> d           0.855   2.738   3.457  0.00  0.00     0.036 H 
BRANCH  11  14
ATOM     14  C1  <0> d           0.906   4.832   2.954  0.00  0.00    -0.074 C 
ATOM     15  H4  <0> d           0.301   5.545   2.394  0.00  0.00     0.027 H 
ATOM     16  H5  <0> d           0.983   5.156   3.992  0.00  0.00     0.027 H 
ATOM     17  H6  <0> d           1.903   4.779   2.515  0.00  0.00     0.027 H 
ENDBRANCH  11  14
ENDBRANCH   1  11
BRANCH   6  18
ATOM     18  C7  <0> d           1.791   2.108  -1.417  0.00  0.00    -0.052 C 
ATOM     19  H11 <0> d           1.095   2.880  -1.744  0.00  0.00     0.030 H 
ATOM     20  H12 <0> d           2.804   2.508  -1.418  0.00  0.00     0.030 H 
ATOM     21  H13 <0> d           1.735   1.257  -2.097  0.00  0.00     0.030 H 
ENDBRANCH   6  18
BRANCH   4  22
ATOM     22  C8  <0> d          -0.820   1.623  -1.175  0.00  0.00    -0.070 C 
ATOM     23  H14 <0> d          -0.363   1.293  -2.107  0.00  0.00     0.028 H 
ATOM     24  H15 <0> d          -1.842   1.247  -1.118  0.00  0.00     0.028 H 
ATOM     25  H16 <0> d          -0.832   2.713  -1.142  0.00  0.00     0.028 H 
ENDBRANCH   4  22
TORSDOF 4
