REMARK  0 active torsions:
REMARK  status: ('A' for Active; 'I' for Inactive)
ROOT
ATOM      1  C1  <0> d           1.156   3.828   0.012  0.00  0.00    -0.080 A 
ATOM      2  C2  <0> d          -0.024   4.517   0.027  0.00  0.00    -0.071 A 
ATOM      3  C3  <0> d          -1.234   3.820   0.034  0.00  0.00    -0.006 A 
ATOM      4  C4  <0> d          -2.642   4.225   0.050  0.00  0.00    -0.056 A 
ATOM      5  C5  <0> d          -3.374   3.100   0.051  0.00  0.00    -0.022 A 
ATOM      6  N1  <0> d          -2.551   2.008   0.037  0.00  0.00    -0.364 N 
ATOM      7  H1  <0> d          -2.849   1.085   0.035  0.00  0.00     0.165 HD
ATOM      8  C6  <0> d          -1.235   2.414   0.021  0.00  0.00     0.064 A 
ATOM      9  C7  <0> d          -0.021   1.732   0.012  0.00  0.00     0.061 A 
ATOM     10  C8  <0> d           1.162   2.440   0.004  0.00  0.00    -0.060 A 
ATOM     11 Cl1  <0> d           0.002  -0.004   0.002  0.00  0.00    -0.082 Cl
ATOM     12  H2  <0> d           2.091   4.367   0.006  0.00  0.00     0.083 H 
ATOM     13  H3  <0> d          -0.021   5.597   0.033  0.00  0.00     0.084 H 
ATOM     14  H4  <0> d          -3.019   5.237   0.058  0.00  0.00     0.086 H 
ATOM     15  H5  <0> d          -4.454   3.063   0.060  0.00  0.00     0.111 H 
ATOM     16  H6  <0> d           2.102   1.909  -0.008  0.00  0.00     0.086 H 
ENDROOT
TORSDOF 0
