REMARK  2 active torsions:
REMARK  status: ('A' for Active; 'I' for Inactive)
REMARK    1  A    between atoms: C4_4  and  C7_8 
REMARK    2  A    between atoms: C7_8  and  O1_9 
ROOT
ATOM      1  C1  <0> d           1.208  -0.679  -0.013  0.00  0.00    -0.043 A 
ATOM      2  C2  <0> d           0.002  -0.004   0.002  0.00  0.00    -0.042 A 
ATOM      3  C3  <0> d          -0.017   1.380   0.010  0.00  0.00     0.124 A 
ATOM      4  C4  <0> d           1.173   2.089   0.002  0.00  0.00     0.007 A 
ATOM      5  C5  <0> d           2.379   1.414  -0.013  0.00  0.00    -0.035 A 
ATOM      6  C6  <0> d           2.397   0.030  -0.021  0.00  0.00     0.117 A 
ATOM      7  F1  <0> d           3.576  -0.630  -0.035  0.00  0.00    -0.206 F 
ATOM      8  F2  <0> d          -1.196   2.040   0.019  0.00  0.00    -0.205 F 
ATOM      9  H1  <0> d           1.223  -1.759  -0.019  0.00  0.00     0.088 H 
ATOM     10  H2  <0> d          -0.926  -0.557   0.008  0.00  0.00     0.088 H 
ATOM     11  H3  <0> d           3.307   1.967  -0.019  0.00  0.00     0.089 H 
ENDROOT
BRANCH   4  12
ATOM     12  C7  <0> d           1.153   3.595   0.010  0.00  0.00     0.043 C 
ATOM     13  H4  <0> d           0.625   3.957  -0.873  0.00  0.00     0.081 H 
ATOM     14  H5  <0> d           0.642   3.947   0.907  0.00  0.00     0.081 H 
BRANCH  12  15
ATOM     15  O1  <0> d           2.493   4.090   0.000  0.00  0.00    -0.396 OA
ATOM     16  H6  <0> d           2.556   5.055   0.005  0.00  0.00     0.209 HD
ENDBRANCH  12  15
ENDBRANCH   4  12
TORSDOF 2
