REMARK  2 active torsions:
REMARK  status: ('A' for Active; 'I' for Inactive)
REMARK    1  A    between atoms: C1_1  and  C2_2 
REMARK    2  A    between atoms: C5_5  and  C6_8 
ROOT
ATOM      1  C2  <0> d           0.002  -0.004   0.002  0.00  0.00     0.007 A 
ATOM      2  C3  <0> d           0.008  -0.780  -1.097  0.00  0.00    -0.040 A 
ATOM      3  C4  <0> d           0.029  -2.168  -0.622  0.00  0.00     0.068 A 
ATOM      4  C5  <0> d           0.034  -2.102   0.744  0.00  0.00     0.026 A 
ATOM      5  N1  <0> d           0.023  -0.803   1.107  0.00  0.00    -0.362 N 
ATOM      6  H1  <0> d           0.028  -0.484   2.023  0.00  0.00     0.165 HD
ATOM      7  C7  <0> d           0.042  -3.353  -1.426  0.00  0.00     0.101 C 
ATOM      8  N2  <0> d           0.053  -4.292  -2.064  0.00  0.00    -0.191 NA
ATOM      9  H5  <0> d          -0.002  -0.448  -2.124  0.00  0.00     0.088 H 
ENDROOT
BRANCH   4  10
ATOM     10  C6  <0> d           0.054  -3.280   1.683  0.00  0.00    -0.036 C 
ATOM     11  H6  <0> d           1.086  -3.551   1.906  0.00  0.00     0.035 H 
ATOM     12  H7  <0> d          -0.460  -3.017   2.608  0.00  0.00     0.035 H 
ATOM     13  H8  <0> d          -0.450  -4.126   1.216  0.00  0.00     0.035 H 
ENDBRANCH   4  10
BRANCH   1  14
ATOM     14  C1  <0> d          -0.018   1.503   0.010  0.00  0.00    -0.037 C 
ATOM     15  H2  <0> d           1.004   1.880   0.003  0.00  0.00     0.035 H 
ATOM     16  H3  <0> d          -0.545   1.864  -0.873  0.00  0.00     0.035 H 
ATOM     17  H4  <0> d          -0.529   1.854   0.907  0.00  0.00     0.035 H 
ENDBRANCH   1  14
TORSDOF 2
