REMARK  1 active torsions:
REMARK  status: ('A' for Active; 'I' for Inactive)
REMARK    1  A    between atoms: C3_3  and  N2_9 
ROOT
ATOM      1  C1  <0> d           0.002  -0.004   0.002  0.00  0.00    -0.061 A 
ATOM      2  C2  <0> d          -0.017   1.372   0.010  0.00  0.00    -0.056 A 
ATOM      3  C3  <0> d           1.178   2.086   0.002  0.00  0.00     0.025 A 
ATOM      4  C4  <0> d           2.395   1.411  -0.013  0.00  0.00    -0.056 A 
ATOM      5  C5  <0> d           2.421   0.035  -0.021  0.00  0.00    -0.061 A 
ATOM      6  C6  <0> d           1.223  -0.685  -0.013  0.00  0.00     0.044 A 
ATOM      7  C7  <0> d           1.246  -2.117  -0.021  0.00  0.00     0.099 C 
ATOM      8  N1  <0> d           1.265  -3.252  -0.027  0.00  0.00    -0.191 NA
ATOM      9  H1  <0> d          -0.925  -0.557   0.007  0.00  0.00     0.085 H 
ATOM     10  H2  <0> d          -0.960   1.899   0.017  0.00  0.00     0.086 H 
ATOM     11  H3  <0> d           3.321   1.968  -0.019  0.00  0.00     0.086 H 
ATOM     12  H4  <0> d           3.366  -0.488  -0.032  0.00  0.00     0.085 H 
ENDROOT
BRANCH   3  13
ATOM     13  N2  <0> d           1.156   3.478   0.009  0.00  0.00    -0.399 N 
ATOM     14  H5  <0> d           0.308   3.949   0.019  0.00  0.00     0.156 HD
ATOM     15  H6  <0> d           1.988   3.976   0.004  0.00  0.00     0.156 HD
ENDBRANCH   3  13
TORSDOF 1
