REMARK  0 active torsions:
REMARK  status: ('A' for Active; 'I' for Inactive)
ROOT
ATOM      1  C1  <0> d          -1.214   1.750   0.017  0.00  0.00    -0.079 A 
ATOM      2  C2  <0> d          -0.013   1.076   0.008  0.00  0.00    -0.067 A 
ATOM      3  C3  <0> d           1.188   1.793   0.000  0.00  0.00     0.048 A 
ATOM      4  C4  <0> d           1.173   3.195   0.007  0.00  0.00     0.121 A 
ATOM      5  C5  <0> d          -0.055   3.855   0.022  0.00  0.00     0.150 A 
ATOM      6  C6  <0> d          -1.233   3.135   0.029  0.00  0.00    -0.043 A 
ATOM      7  F1  <0> d          -0.092   5.206   0.029  0.00  0.00    -0.203 F 
ATOM      8  O1  <0> d           2.432   3.696  -0.002  0.00  0.00    -0.339 OA
ATOM      9  C7  <0> d           3.393   2.639  -0.017  0.00  0.00     0.085 A 
ATOM     10  C8  <0> d           2.593   1.354  -0.015  0.00  0.00     0.186 A 
ATOM     11  O2  <0> d           3.015   0.217  -0.026  0.00  0.00    -0.290 OA
ATOM     12  H1  <0> d          -2.142   1.197   0.019  0.00  0.00     0.083 H 
ATOM     13  H2  <0> d           0.002  -0.004   0.002  0.00  0.00     0.085 H 
ATOM     14  H3  <0> d          -2.178   3.657   0.040  0.00  0.00     0.088 H 
ATOM     15  H4  <0> d           3.963   2.719  -0.835  0.00  0.00     0.087 H 
ATOM     16  H5  <0> d           4.022   2.692   0.872  0.00  0.00     0.087 H 
ENDROOT
TORSDOF 0
