REMARK  2 active torsions:
REMARK  status: ('A' for Active; 'I' for Inactive)
REMARK    1  A    between atoms: C1_1  and  S1_2 
REMARK    2  A    between atoms: S1_2  and  C2_4 
ROOT
ATOM      1  C2  <0> d           0.848  -0.411  -1.489  0.00  0.00     0.237 A 
ATOM      2  N1  <0> d           2.164  -0.580  -1.611  0.00  0.00    -0.213 NA
ATOM      3  H1  <0> d           1.225  -1.088  -4.505  0.00  0.00     0.190 HD
ATOM      4  C3  <0> d           2.461  -0.873  -2.851  0.00  0.00     0.083 A 
ATOM      5  N2  <0> d           1.319  -0.898  -3.558  0.00  0.00    -0.269 N 
ATOM      6  N3  <0> d           0.286  -0.601  -2.654  0.00  0.00    -0.144 NA
ATOM      7  H5  <0> d           3.451  -1.062  -3.238  0.00  0.00     0.145 H 
ENDROOT
BRANCH   1   8
ATOM      8  S1  <0> d           0.002  -0.004   0.002  0.00  0.00     0.085 S 
ATOM      9  O1  <0> d           0.868  -0.472   1.027  0.00  0.00    -0.250 OA
BRANCH   8  10
ATOM     10  C1  <0> d          -0.022   1.810   0.012  0.00  0.00    -0.001 C 
ATOM     11  H2  <0> d           1.000   2.187   0.004  0.00  0.00     0.046 H 
ATOM     12  H3  <0> d          -0.550   2.171  -0.871  0.00  0.00     0.046 H 
ATOM     13  H4  <0> d          -0.533   2.161   0.909  0.00  0.00     0.046 H 
ENDBRANCH   8  10
ENDBRANCH   1   8
TORSDOF 2
