REMARK  2 active torsions:
REMARK  status: ('A' for Active; 'I' for Inactive)
REMARK    1  A    between atoms: C1_1  and  C2_2 
REMARK    2  A    between atoms: C6_6  and  N1_8 
ROOT
ATOM      1  C2  <0> d          -1.241   3.135   0.030  0.00  0.00    -0.060 A 
ATOM      2  C3  <0> d          -1.215   1.749   0.017  0.00  0.00    -0.076 A 
ATOM      3  C4  <0> d          -0.013   1.076   0.008  0.00  0.00    -0.060 A 
ATOM      4  C5  <0> d           1.187   1.792   0.000  0.00  0.00     0.070 A 
ATOM      5  C6  <0> d           1.157   3.195   0.008  0.00  0.00     0.047 A 
ATOM      6  C7  <0> d          -0.064   3.856   0.022  0.00  0.00    -0.051 A 
ATOM      7  C8  <0> d           2.440   1.098  -0.015  0.00  0.00     0.101 C 
ATOM      8  N2  <0> d           3.434   0.548  -0.028  0.00  0.00    -0.191 NA
ATOM      9  H4  <0> d          -2.141   1.194   0.019  0.00  0.00     0.084 H 
ATOM     10  H5  <0> d           0.002  -0.004   0.002  0.00  0.00     0.086 H 
ATOM     11  H6  <0> d          -0.093   4.936   0.028  0.00  0.00     0.087 H 
ENDROOT
BRANCH   5  12
ATOM     12  N1  <0> d           2.344   3.920   0.001  0.00  0.00    -0.398 N 
ATOM     13  H7  <0> d           3.196   3.455  -0.009  0.00  0.00     0.156 HD
ATOM     14  H8  <0> d           2.320   4.889   0.006  0.00  0.00     0.156 HD
ENDBRANCH   5  12
BRANCH   1  15
ATOM     15  C1  <0> d          -2.562   3.858   0.045  0.00  0.00    -0.051 C 
ATOM     16  H1  <0> d          -2.891   4.038  -0.979  0.00  0.00     0.033 H 
ATOM     17  H2  <0> d          -3.304   3.250   0.563  0.00  0.00     0.033 H 
ATOM     18  H3  <0> d          -2.449   4.811   0.563  0.00  0.00     0.033 H 
ENDBRANCH   1  15
TORSDOF 2
