REMARK  5 active torsions:
REMARK  status: ('A' for Active; 'I' for Inactive)
REMARK    1  A    between atoms: C1_1  and  C2_2 
REMARK    2  A    between atoms: C2_2  and  C3_3 
REMARK    3  A    between atoms: C3_3  and  C4_4 
REMARK    4  A    between atoms: C4_4  and  C5_5 
REMARK    5  A    between atoms: C6_6  and  C7_7 
ROOT
ATOM      1  C5  <0> d           0.002  -0.004   0.002  0.00  0.00    -0.104 C 
ATOM      2  C6  <0> d           0.018  -1.178  -0.004  0.00  0.00    -0.074 C 
ENDROOT
BRANCH   1   3
ATOM      3  C4  <0> d          -0.018   1.468   0.010  0.00  0.00    -0.009 C 
ATOM      4  H9  <0> d           1.005   1.845   0.002  0.00  0.00     0.051 H 
ATOM      5  H10 <0> d          -0.545   1.829  -0.873  0.00  0.00     0.051 H 
BRANCH   3   6
ATOM      6  C3  <0> d          -0.734   1.961   1.269  0.00  0.00    -0.056 C 
ATOM      7  H7  <0> d          -1.757   1.584   1.277  0.00  0.00     0.034 H 
ATOM      8  H8  <0> d          -0.207   1.600   2.152  0.00  0.00     0.034 H 
BRANCH   6   9
ATOM      9  C2  <0> d          -0.755   3.491   1.277  0.00  0.00    -0.068 C 
ATOM     10  H5  <0> d           0.268   3.868   1.270  0.00  0.00     0.032 H 
ATOM     11  H6  <0> d          -1.282   3.852   0.394  0.00  0.00     0.032 H 
BRANCH   9  12
ATOM     12  C1  <0> d          -1.471   3.984   2.536  0.00  0.00    -0.076 C 
ATOM     13  H2  <0> d          -2.494   3.607   2.544  0.00  0.00     0.027 H 
ATOM     14  H3  <0> d          -0.944   3.623   3.419  0.00  0.00     0.027 H 
ATOM     15  H4  <0> d          -1.486   5.074   2.542  0.00  0.00     0.027 H 
ENDBRANCH   9  12
ENDBRANCH   6   9
ENDBRANCH   3   6
ENDBRANCH   1   3
BRANCH   2  16
ATOM     16  C7  <0> d           0.038  -2.650  -0.013  0.00  0.00     0.096 C 
ATOM     17  H1  <0> d          -0.982  -3.034  -0.005  0.00  0.00     0.103 H 
ATOM     18  O1  <0> d           0.730  -3.123  -1.180  0.00  0.00    -0.374 OA
ATOM     19  C10 <0> d           2.112  -3.316  -0.798  0.00  0.00     0.021 C 
ATOM     20  C9  <0> d           2.013  -3.929   0.622  0.00  0.00    -0.042 C 
ATOM     21  H15 <0> d           2.639  -2.362  -0.768  0.00  0.00     0.074 H 
ATOM     22  H16 <0> d           2.608  -4.005  -1.480  0.00  0.00     0.074 H 
ATOM     23  C8  <0> d           0.803  -3.170   1.220  0.00  0.00    -0.029 C 
ATOM     24  H13 <0> d           2.919  -3.731   1.196  0.00  0.00     0.036 H 
ATOM     25  H14 <0> d           1.814  -5.000   0.571  0.00  0.00     0.036 H 
ATOM     26  H11 <0> d           1.142  -2.339   1.838  0.00  0.00     0.038 H 
ATOM     27  H12 <0> d           0.176  -3.846   1.801  0.00  0.00     0.038 H 
ENDBRANCH   2  16
TORSDOF 5
