REMARK  5 active torsions:
REMARK  status: ('A' for Active; 'I' for Inactive)
REMARK    1  A    between atoms: C4_4  and  C7_7 
REMARK    2  A    between atoms: C4_4  and  C9_10 
REMARK    3  A    between atoms: C7_7  and  C8_8 
REMARK    4  A    between atoms: C8_8  and  O1_9 
REMARK    5  A    between atoms: C9_10  and  O2_11 
ROOT
ATOM      1  C1  <0> d          -1.666  -1.874   2.493  0.00  0.00    -0.065 C 
ATOM      2  C2  <0> d          -0.911  -2.459   1.298  0.00  0.00    -0.064 C 
ATOM      3  C3  <0> d          -1.544  -1.956  -0.001  0.00  0.00    -0.056 C 
ATOM      4  C4  <0> d          -1.467  -0.428  -0.048  0.00  0.00    -0.017 C 
ATOM      5  C5  <0> d          -2.222   0.157   1.148  0.00  0.00    -0.056 C 
ATOM      6  C6  <0> d          -1.589  -0.347   2.447  0.00  0.00    -0.064 C 
ATOM      7  H1  <0> d          -2.709  -2.187   2.452  0.00  0.00     0.033 H 
ATOM      8  H2  <0> d          -1.215  -2.233   3.418  0.00  0.00     0.033 H 
ATOM      9  H3  <0> d          -0.966  -3.547   1.330  0.00  0.00     0.033 H 
ATOM     10  H4  <0> d           0.132  -2.147   1.338  0.00  0.00     0.033 H 
ATOM     11  H5  <0> d          -2.587  -2.269  -0.042  0.00  0.00     0.034 H 
ATOM     12  H6  <0> d          -1.006  -2.373  -0.853  0.00  0.00     0.034 H 
ATOM     13  H7  <0> d          -2.167   1.245   1.115  0.00  0.00     0.034 H 
ATOM     14  H8  <0> d          -3.265  -0.156   1.107  0.00  0.00     0.034 H 
ATOM     15  H9  <0> d          -2.127   0.070   3.298  0.00  0.00     0.033 H 
ATOM     16  H10 <0> d          -0.546  -0.034   2.487  0.00  0.00     0.033 H 
ENDROOT
BRANCH   4  17
ATOM     17  C7  <0> d          -0.003   0.010   0.010  0.00  0.00    -0.036 C 
ATOM     18  H11 <0> d           0.464  -0.398   0.906  0.00  0.00     0.037 H 
ATOM     19  H12 <0> d           0.050   1.099   0.036  0.00  0.00     0.037 H 
BRANCH  17  20
ATOM     20  C8  <0> d           0.733  -0.506  -1.228  0.00  0.00     0.018 C 
ATOM     21  H13 <0> d           0.744  -1.595  -1.217  0.00  0.00     0.074 H 
ATOM     22  H14 <0> d           0.223  -0.156  -2.126  0.00  0.00     0.074 H 
BRANCH  20  23
ATOM     23  O1  <0> d           2.076  -0.017  -1.223  0.00  0.00    -0.401 OA
ATOM     24  H15 <0> d           2.603  -0.305  -1.981  0.00  0.00     0.209 HD
ENDBRANCH  20  23
ENDBRANCH  17  20
ENDBRANCH   4  17
BRANCH   4  25
ATOM     25  C9  <0> d          -2.100   0.075  -1.346  0.00  0.00     0.024 C 
ATOM     26  H16 <0> d          -1.628  -0.419  -2.196  0.00  0.00     0.075 H 
ATOM     27  H17 <0> d          -3.166  -0.150  -1.342  0.00  0.00     0.075 H 
BRANCH  25  28
ATOM     28  O2  <0> d          -1.911   1.488  -1.452  0.00  0.00    -0.400 OA
ATOM     29  H18 <0> d          -2.288   1.876  -2.253  0.00  0.00     0.209 HD
ENDBRANCH  25  28
ENDBRANCH   4  25
TORSDOF 5
