REMARK  2 active torsions:
REMARK  status: ('A' for Active; 'I' for Inactive)
REMARK    1  A    between atoms: C1_1  and  C2_2 
REMARK    2  A    between atoms: C2_2  and  C3_4 
ROOT
ATOM      1  C3  <0> d          -0.000  -0.750  -1.307  0.00  0.00     0.122 A 
ATOM      2  H1  <0> d          -0.679  -0.278  -2.017  0.00  0.00     0.096 H 
ATOM      3  C4  <0> d           1.402  -0.832  -1.879  0.00  0.00     0.014 A 
ATOM      4  N1  <0> d           1.676  -2.097  -1.939  0.00  0.00    -0.256 NA
ATOM      5  C5  <0> d           0.657  -2.860  -1.488  0.00  0.00     0.081 A 
ATOM      6  N2  <0> d          -0.365  -2.163  -1.100  0.00  0.00    -0.265 NA
ATOM      7  H5  <0> d           2.037  -0.010  -2.175  0.00  0.00     0.112 H 
ATOM      8  H6  <0> d           0.689  -3.939  -1.456  0.00  0.00     0.145 H 
ENDROOT
BRANCH   1   9
ATOM      9  C2  <0> d           0.002  -0.004   0.002  0.00  0.00     0.152 C 
ATOM     10  O1  <0> d           0.020  -0.613   1.044  0.00  0.00    -0.296 OA
BRANCH   9  11
ATOM     11  C1  <0> d          -0.018   1.503   0.010  0.00  0.00    -0.018 C 
ATOM     12  H2  <0> d           1.004   1.880   0.003  0.00  0.00     0.037 H 
ATOM     13  H3  <0> d          -0.545   1.864  -0.873  0.00  0.00     0.037 H 
ATOM     14  H4  <0> d          -0.529   1.854   0.907  0.00  0.00     0.037 H 
ENDBRANCH   9  11
ENDBRANCH   1   9
TORSDOF 2
