REMARK  5 active torsions:
REMARK  status: ('A' for Active; 'I' for Inactive)
REMARK    1  A    between atoms: C1_1  and  C2_2 
REMARK    2  A    between atoms: C2_2  and  C3_3 
REMARK    3  A    between atoms: C2_2  and  C4_4 
REMARK    4  A    between atoms: C4_4  and  S1_5 
REMARK    5  A    between atoms: S1_5  and  N1_8 
ROOT
ATOM      1  C2  <0> d           0.002  -0.004   0.002  0.00  0.00    -0.047 C 
ATOM      2  H4  <0> d           0.529  -0.365   0.885  0.00  0.00     0.040 H 
ENDROOT
BRANCH   1   3
ATOM      3  C1  <0> d          -0.019   1.526   0.010  0.00  0.00    -0.072 C 
ATOM      4  H1  <0> d           1.004   1.903   0.003  0.00  0.00     0.028 H 
ATOM      5  H2  <0> d          -0.546   1.887  -0.873  0.00  0.00     0.028 H 
ATOM      6  H3  <0> d          -0.529   1.877   0.907  0.00  0.00     0.028 H 
ENDBRANCH   1   3
BRANCH   1   7
ATOM      7  C3  <0> d          -1.433  -0.534   0.013  0.00  0.00    -0.072 C 
ATOM      8  H5  <0> d          -1.960  -0.173  -0.870  0.00  0.00     0.028 H 
ATOM      9  H6  <0> d          -1.419  -1.623   0.007  0.00  0.00     0.028 H 
ATOM     10  H7  <0> d          -1.944  -0.182   0.910  0.00  0.00     0.028 H 
ENDBRANCH   1   7
BRANCH   1  11
ATOM     11  C4  <0> d           0.718  -0.497  -1.257  0.00  0.00     0.049 C 
ATOM     12  H8  <0> d           0.656  -1.585  -1.308  0.00  0.00     0.059 H 
ATOM     13  H9  <0> d           0.244  -0.064  -2.138  0.00  0.00     0.059 H 
BRANCH  11  14
ATOM     14  S1  <0> d           2.460   0.006  -1.198  0.00  0.00     0.224 S 
ATOM     15  O1  <0> d           2.565   1.418  -1.311  0.00  0.00    -0.206 OA
ATOM     16  O2  <0> d           3.136  -0.690  -0.160  0.00  0.00    -0.206 OA
BRANCH  14  17
ATOM     17  N1  <0> d           3.120  -0.581  -2.599  0.00  0.00    -0.328 N 
ATOM     18  H10 <0> d           3.862  -0.116  -3.017  0.00  0.00     0.168 HD
ATOM     19  H11 <0> d           2.764  -1.388  -3.002  0.00  0.00     0.168 HD
ENDBRANCH  14  17
ENDBRANCH  11  14
ENDBRANCH   1  11
TORSDOF 5
