REMARK  1 active torsions:
REMARK  status: ('A' for Active; 'I' for Inactive)
REMARK    1  A    between atoms: C1_1  and  C2_2 
ROOT
ATOM      1  C2  <0> d           0.002  -0.004   0.002  0.00  0.00     0.009 A 
ATOM      2  N1  <0> d           0.005  -0.677  -1.209  0.00  0.00    -0.313 N 
ATOM      3  C3  <0> d           0.023  -2.013  -1.310  0.00  0.00     0.321 A 
ATOM      4  O1  <0> d           0.025  -2.523  -2.414  0.00  0.00    -0.247 OA
ATOM      5  N2  <0> d           0.039  -2.807  -0.221  0.00  0.00    -0.322 N 
ATOM      6  C4  <0> d           0.037  -2.171   1.107  0.00  0.00     0.116 A 
ATOM      7  H1  <0> d          -0.836  -2.534   1.651  0.00  0.00     0.102 H 
ATOM      8  C5  <0> d           0.022  -0.658   1.150  0.00  0.00    -0.047 A 
ATOM      9  C6  <0> d           1.236  -2.628   1.829  0.00  0.00     0.088 C 
ATOM     10  N3  <0> d           2.161  -2.980   2.387  0.00  0.00    -0.195 NA
ATOM     11  H5  <0> d           0.051  -3.773  -0.310  0.00  0.00     0.165 HD
ATOM     12  H6  <0> d           0.024  -0.128   2.091  0.00  0.00     0.084 H 
ATOM     13  H7  <0> d          -0.006  -0.154  -2.026  0.00  0.00     0.170 HD
ENDROOT
BRANCH   1  14
ATOM     14  C1  <0> d          -0.018   1.503   0.010  0.00  0.00    -0.038 C 
ATOM     15  H2  <0> d           1.004   1.880   0.003  0.00  0.00     0.035 H 
ATOM     16  H3  <0> d          -0.545   1.864  -0.873  0.00  0.00     0.035 H 
ATOM     17  H4  <0> d          -0.529   1.854   0.907  0.00  0.00     0.035 H 
ENDBRANCH   1  14
TORSDOF 1
