REMARK  6 active torsions:
REMARK  status: ('A' for Active; 'I' for Inactive)
REMARK    1  A    between atoms: C1_1  and  C2_2 
REMARK    2  A    between atoms: C2_2  and  C3_3 
REMARK    3  A    between atoms: C3_3  and  C4_4 
REMARK    4  A    between atoms: C3_3  and  C5_5 
REMARK    5  A    between atoms: C3_3  and  O1_8 
REMARK    6  A    between atoms: C5_5  and  C6_6 
ROOT
ATOM      1  C3  <0> d           0.002  -0.004   0.002  0.00  0.00     0.057 C 
ENDROOT
BRANCH   1   2
ATOM      2  C2  <0> d          -1.433  -0.534   0.013  0.00  0.00    -0.040 C 
ATOM      3  H4  <0> d          -1.933  -0.247  -0.912  0.00  0.00     0.036 H 
ATOM      4  H5  <0> d          -1.419  -1.620   0.097  0.00  0.00     0.036 H 
BRANCH   2   5
ATOM      5  C1  <0> d          -2.187   0.060   1.205  0.00  0.00    -0.074 C 
ATOM      6  H1  <0> d          -1.687  -0.227   2.130  0.00  0.00     0.027 H 
ATOM      7  H2  <0> d          -2.201   1.146   1.121  0.00  0.00     0.027 H 
ATOM      8  H3  <0> d          -3.209  -0.318   1.213  0.00  0.00     0.027 H 
ENDBRANCH   2   5
ENDBRANCH   1   2
BRANCH   1   9
ATOM      9  C4  <0> d          -0.019   1.526   0.010  0.00  0.00    -0.048 C 
ATOM     10  H6  <0> d           1.004   1.903   0.003  0.00  0.00     0.031 H 
ATOM     11  H7  <0> d          -0.546   1.887  -0.873  0.00  0.00     0.031 H 
ATOM     12  H8  <0> d          -0.529   1.877   0.907  0.00  0.00     0.031 H 
ENDBRANCH   1   9
BRANCH   1  13
ATOM     13  C5  <0> d           0.718  -0.497  -1.257  0.00  0.00    -0.022 C 
ATOM     14  H9  <0> d           0.733  -1.587  -1.263  0.00  0.00     0.043 H 
ATOM     15  H10 <0> d           0.191  -0.136  -2.140  0.00  0.00     0.043 H 
BRANCH  13  16
ATOM     16  C6  <0> d           2.132   0.024  -1.268  0.00  0.00    -0.109 C 
ATOM     17  C7  <0> d           3.137  -0.809  -1.380  0.00  0.00    -0.125 C 
ATOM     18  H12 <0> d           2.952  -1.869  -1.466  0.00  0.00     0.066 H 
ATOM     19  H13 <0> d           4.150  -0.435  -1.388  0.00  0.00     0.066 H 
ATOM     20  H11 <0> d           2.317   1.085  -1.182  0.00  0.00     0.075 H 
ENDBRANCH  13  16
ENDBRANCH   1  13
BRANCH   1  21
ATOM     21  O1  <0> d           0.693  -0.477   1.160  0.00  0.00    -0.390 OA
ATOM     22  H14 <0> d           0.745  -1.441   1.220  0.00  0.00     0.210 HD
ENDBRANCH   1  21
TORSDOF 6
