REMARK  1 active torsions:
REMARK  status: ('A' for Active; 'I' for Inactive)
REMARK    1  A    between atoms: C3_3  and  C6_9 
ROOT
ATOM      1  C1  <0> d          -0.048   3.724   0.022  0.00  0.00    -0.075 A 
ATOM      2  C2  <0> d           1.169   3.024   0.007  0.00  0.00    -0.050 A 
ATOM      3  C3  <0> d           1.169   1.661  -0.000  0.00  0.00     0.112 A 
ATOM      4  N1  <0> d          -0.011   0.966   0.007  0.00  0.00    -0.318 N 
ATOM      5  H1  <0> d           0.002  -0.004   0.002  0.00  0.00     0.169 HD
ATOM      6  C4  <0> d          -1.190   1.617   0.017  0.00  0.00     0.245 A 
ATOM      7  O1  <0> d          -2.234   0.987   0.018  0.00  0.00    -0.268 OA
ATOM      8  C5  <0> d          -1.218   3.030   0.029  0.00  0.00    -0.017 A 
ATOM      9  H2  <0> d          -0.055   4.804   0.027  0.00  0.00     0.083 H 
ATOM     10  H3  <0> d           2.104   3.565   0.001  0.00  0.00     0.087 H 
ATOM     11  H4  <0> d          -2.162   3.555   0.041  0.00  0.00     0.092 H 
ENDROOT
BRANCH   3  12
ATOM     12  C6  <0> d           2.452   0.927  -0.015  0.00  0.00     0.226 C 
ATOM     13  O2  <0> d           2.457  -0.287  -0.021  0.00  0.00    -0.643 OA
ATOM     14  O3  <0> d           3.616   1.606  -0.023  0.00  0.00    -0.643 OA
ENDBRANCH   3  12
TORSDOF 1
