REMARK  1 active torsions:
REMARK  status: ('A' for Active; 'I' for Inactive)
REMARK    1  A    between atoms: C4_4  and  S1_7 
ROOT
ATOM      1  C1  <0> d          -0.017   1.378   0.010  0.00  0.00    -0.083 A 
ATOM      2  C2  <0> d           1.171   2.086   0.002  0.00  0.00    -0.081 A 
ATOM      3  C3  <0> d           2.377   1.411  -0.013  0.00  0.00    -0.059 A 
ATOM      4  C4  <0> d           2.396   0.029  -0.020  0.00  0.00     0.080 A 
ATOM      5  C5  <0> d           1.208  -0.679  -0.012  0.00  0.00    -0.059 A 
ATOM      6  C6  <0> d           0.002  -0.004   0.002  0.00  0.00    -0.081 A 
ATOM      7  H1  <0> d          -0.959   1.905   0.026  0.00  0.00     0.083 H 
ATOM      8  H2  <0> d           1.156   3.165   0.008  0.00  0.00     0.083 H 
ATOM      9  H3  <0> d           3.305   1.963  -0.020  0.00  0.00     0.086 H 
ATOM     10  H4  <0> d           1.223  -1.759  -0.018  0.00  0.00     0.086 H 
ATOM     11  H5  <0> d          -0.926  -0.557   0.008  0.00  0.00     0.083 H 
ENDROOT
BRANCH   4  12
ATOM     12  S1  <0> d           3.934  -0.832  -0.041  0.00  0.00     0.137 S 
ATOM     13  O1  <0> d           3.707  -2.086  -0.740  0.00  0.00    -0.591 OA
ATOM     14  O2  <0> d           4.883   0.018  -0.742  0.00  0.00    -0.591 OA
ATOM     15  O3  <0> d           4.317  -1.045   1.347  0.00  0.00    -0.591 OA
ENDBRANCH   4  12
TORSDOF 1
