REMARK  2 active torsions:
REMARK  status: ('A' for Active; 'I' for Inactive)
REMARK    1  A    between atoms: C4_4  and  N2_7 
REMARK    2  A    between atoms: N2_7  and  C6_8 
ROOT
ATOM      1  C1  <0> d          -1.227   1.738   0.017  0.00  0.00    -0.064 A 
ATOM      2  C2  <0> d          -1.248   3.122   0.031  0.00  0.00    -0.058 A 
ATOM      3  C3  <0> d          -0.028   3.806   0.023  0.00  0.00     0.090 A 
ATOM      4  C4  <0> d           1.165   3.062   0.007  0.00  0.00     0.144 A 
ATOM      5  N1  <0> d           1.128   1.739   0.001  0.00  0.00    -0.242 NA
ATOM      6  C5  <0> d          -0.013   1.076   0.008  0.00  0.00     0.004 A 
ATOM      7  C9  <0> d           0.006   5.237   0.031  0.00  0.00     0.103 C 
ATOM      8  N3  <0> d           0.033   6.373   0.037  0.00  0.00    -0.191 NA
ATOM      9  H1  <0> d          -2.151   1.179   0.018  0.00  0.00     0.085 H 
ATOM     10  H2  <0> d          -2.184   3.661   0.042  0.00  0.00     0.086 H 
ATOM     11  H3  <0> d           0.002  -0.004   0.002  0.00  0.00     0.114 H 
ENDROOT
BRANCH   4  12
ATOM     12  N2  <0> d           2.385   3.716  -0.000  0.00  0.00    -0.369 N 
ATOM     13  H4  <0> d           2.419   4.816   0.005  0.00  0.00     0.161 HD
BRANCH  12  14
ATOM     14  C6  <0> d           3.630   2.944  -0.016  0.00  0.00     0.011 A 
ATOM     15  C8  <0> d           4.873   3.622  -0.595  0.00  0.00    -0.044 A 
ATOM     16  C7  <0> d           4.755   3.401   0.915  0.00  0.00    -0.044 A 
ATOM     17  H8  <0> d           5.370   2.936  -1.298  0.00  0.00     0.036 H 
ATOM     18  H9  <0> d           4.578   4.539  -1.125  0.00  0.00     0.036 H 
ATOM     19  H6  <0> d           4.362   4.136   1.633  0.00  0.00     0.036 H 
ATOM     20  H7  <0> d           5.155   2.533   1.460  0.00  0.00     0.036 H 
ATOM     21  H5  <0> d           3.079   2.010  -0.196  0.00  0.00     0.072 H 
ENDBRANCH  12  14
ENDBRANCH   4  12
TORSDOF 2
