REMARK  3 active torsions:
REMARK  status: ('A' for Active; 'I' for Inactive)
REMARK    1  A    between atoms: C3_3  and  C4_4 
REMARK    2  A    between atoms: C4_4  and  C7_9 
REMARK    3  A    between atoms: C5_5  and  C6_6 
ROOT
ATOM      1  C4  <0> d          -0.061  -0.062  -0.031  0.00  0.00    -0.065 C 
ATOM      2  C5  <0> d          -0.117   1.225   0.303  0.00  0.00    -0.006 C 
ATOM      3  H6  <0> d           0.806   1.821   0.353  0.00  0.00     0.094 H 
ENDROOT
BRANCH   1   4
ATOM      4  C3  <0> d           1.275  -0.742  -0.187  0.00  0.00    -0.032 A 
ATOM      5  C1  <0> d           1.273  -2.218  -0.589  0.00  0.00    -0.058 A 
ATOM      6  C2  <0> d           1.646  -1.814   0.839  0.00  0.00    -0.058 A 
ATOM      7  H1  <0> d           0.265  -2.507  -0.922  0.00  0.00     0.034 H 
ATOM      8  H2  <0> d           1.989  -2.376  -1.409  0.00  0.00     0.034 H 
ATOM      9  H3  <0> d           0.946  -2.281   1.547  0.00  0.00     0.034 H 
ATOM     10  H4  <0> d           2.670  -2.151   1.060  0.00  0.00     0.034 H 
ATOM     11  H5  <0> d           1.749   0.174  -0.570  0.00  0.00     0.047 H 
ENDBRANCH   1   4
BRANCH   1  12
ATOM     12  C7  <0> d          -1.333  -0.839  -0.254  0.00  0.00    -0.032 A 
ATOM     13  C9  <0> d          -2.248  -0.385  -1.392  0.00  0.00    -0.058 A 
ATOM     14  C8  <0> d          -1.436  -1.675  -1.531  0.00  0.00    -0.058 A 
ATOM     15  H10 <0> d          -3.284  -0.326  -1.028  0.00  0.00     0.034 H 
ATOM     16  H11 <0> d          -1.928   0.606  -1.747  0.00  0.00     0.034 H 
ATOM     17  H8  <0> d          -0.444  -1.750  -2.001  0.00  0.00     0.034 H 
ATOM     18  H9  <0> d          -1.801  -2.682  -1.281  0.00  0.00     0.034 H 
ATOM     19  H7  <0> d          -1.457  -1.033   0.822  0.00  0.00     0.047 H 
ENDBRANCH   1  12
BRANCH   2  20
ATOM     20  C6  <0> d          -1.412   1.850   0.605  0.00  0.00     0.198 C 
ATOM     21  O1  <0> d          -2.416   1.168   0.667  0.00  0.00    -0.644 OA
ATOM     22  O2  <0> d          -1.487   3.179   0.815  0.00  0.00    -0.644 OA
ENDBRANCH   2  20
TORSDOF 3
