REMARK  1 active torsions:
REMARK  status: ('A' for Active; 'I' for Inactive)
REMARK    1  A    between atoms: C2_2  and  C3_3 
ROOT
ATOM      1  C3  <0> d          -0.013   1.086   0.008  0.00  0.00     0.028 C 
ATOM      2  H1  <0> d           0.002  -0.004   0.002  0.00  0.00     0.079 H 
ATOM      3  C4  <0> d           1.429   1.640  -0.003  0.00  0.00    -0.035 C 
ATOM      4  C5  <0> d           1.290   2.898   0.886  0.00  0.00     0.011 C 
ATOM      5  C6  <0> d           0.096   2.600   1.766  0.00  0.00     0.218 C 
ATOM      6  O1  <0> d          -0.182   3.196   2.785  0.00  0.00    -0.274 OA
ATOM      7  N1  <0> d          -0.612   1.579   1.254  0.00  0.00    -0.353 N 
ATOM      8  H5  <0> d           2.125   0.926   0.438  0.00  0.00     0.037 H 
ATOM      9  H6  <0> d           1.736   1.908  -1.014  0.00  0.00     0.037 H 
ATOM     10  H7  <0> d           2.185   3.037   1.493  0.00  0.00     0.047 H 
ATOM     11  H8  <0> d           1.103   3.779   0.273  0.00  0.00     0.047 H 
ATOM     12  H9  <0> d          -1.416   1.214   1.656  0.00  0.00     0.163 HD
ENDROOT
BRANCH   1  13
ATOM     13  C2  <0> d          -0.779   1.603  -1.182  0.00  0.00    -0.090 C 
ATOM     14  C1  <0> d          -1.379   0.764  -1.989  0.00  0.00    -0.123 C 
ATOM     15  H2  <0> d          -1.325  -0.298  -1.802  0.00  0.00     0.066 H 
ATOM     16  H3  <0> d          -1.929   1.134  -2.842  0.00  0.00     0.066 H 
ATOM     17  H4  <0> d          -0.833   2.665  -1.370  0.00  0.00     0.078 H 
ENDBRANCH   1  13
TORSDOF 1
