REMARK  5 active torsions:
REMARK  status: ('A' for Active; 'I' for Inactive)
REMARK    1  A    between atoms: C1_1  and  C2_2 
REMARK    2  A    between atoms: C2_2  and  C3_4 
REMARK    3  A    between atoms: C2_2  and  C5_9 
REMARK    4  A    between atoms: C3_4  and  C4_6 
REMARK    5  A    between atoms: C3_4  and  O2_8 
ROOT
ATOM      1  C2  <0> d          -1.329   1.940   0.019  0.00  0.00     0.061 C 
ATOM      2  H1  <0> d          -1.400   2.570  -0.867  0.00  0.00     0.060 H 
ENDROOT
BRANCH   1   3
ATOM      3  C1  <0> d          -1.417   2.811   1.273  0.00  0.00    -0.061 C 
ATOM      4  H3  <0> d          -0.598   3.531   1.273  0.00  0.00     0.028 H 
ATOM      5  H4  <0> d          -2.368   3.344   1.281  0.00  0.00     0.028 H 
ATOM      6  H5  <0> d          -1.346   2.181   2.160  0.00  0.00     0.028 H 
ENDBRANCH   1   3
BRANCH   1   7
ATOM      7  C3  <0> d          -2.479   0.930   0.019  0.00  0.00     0.131 C 
ATOM      8  H2  <0> d          -2.408   0.299   0.905  0.00  0.00     0.101 H 
BRANCH   7   9
ATOM      9  C4  <0> d          -3.794   1.665   0.029  0.00  0.00     0.203 C 
ATOM     10  O1  <0> d          -4.542   1.580  -0.916  0.00  0.00    -0.646 OA
ATOM     11  O4  <0> d          -4.135   2.416   1.088  0.00  0.00    -0.646 OA
ENDBRANCH   7   9
BRANCH   7  12
ATOM     12  O2  <0> d          -2.397   0.116  -1.153  0.00  0.00    -0.384 OA
ATOM     13  H6  <0> d          -2.454   0.612  -1.981  0.00  0.00     0.210 HD
ENDBRANCH   7  12
ENDBRANCH   1   7
BRANCH   1  14
ATOM     14  C5  <0> d          -0.014   1.204   0.009  0.00  0.00     0.179 C 
ATOM     15  O3  <0> d           0.002  -0.004   0.002  0.00  0.00    -0.648 OA
ATOM     16  O5  <0> d           1.139   1.891   0.001  0.00  0.00    -0.648 OA
ENDBRANCH   1  14
TORSDOF 5
