REMARK  3 active torsions:
REMARK  status: ('A' for Active; 'I' for Inactive)
REMARK    1  A    between atoms: C1_1  and  C2_2 
REMARK    2  A    between atoms: C5_5  and  C8_8 
REMARK    3  A    between atoms: C8_8  and  C9_10 
ROOT
ATOM      1  C2  <0> d          -0.602   1.231   1.007  0.00  0.00    -0.058 C 
ATOM      2  C3  <0> d           0.042   0.929  -0.347  0.00  0.00    -0.061 C 
ATOM      3  C4  <0> d          -0.761   1.611  -1.457  0.00  0.00    -0.055 C 
ATOM      4  C5  <0> d          -0.773   3.123  -1.223  0.00  0.00     0.004 C 
ATOM      5  C6  <0> d          -1.418   3.424   0.131  0.00  0.00    -0.055 C 
ATOM      6  C7  <0> d          -0.615   2.743   1.241  0.00  0.00    -0.061 C 
ATOM      7  H4  <0> d          -1.634   0.850   1.015  0.00  0.00     0.039 H 
ATOM      8  H5  <0> d           1.074   1.310  -0.355  0.00  0.00     0.033 H 
ATOM      9  H6  <0> d           0.051  -0.158  -0.515  0.00  0.00     0.033 H 
ATOM     10  H7  <0> d          -0.298   1.394  -2.431  0.00  0.00     0.034 H 
ATOM     11  H8  <0> d          -1.793   1.230  -1.449  0.00  0.00     0.034 H 
ATOM     12  H9  <0> d          -1.338   3.620  -2.025  0.00  0.00     0.051 H 
ATOM     13  H10 <0> d          -1.427   4.511   0.299  0.00  0.00     0.034 H 
ATOM     14  H11 <0> d          -2.450   3.043   0.139  0.00  0.00     0.034 H 
ATOM     15  H12 <0> d          -1.078   2.959   2.215  0.00  0.00     0.033 H 
ATOM     16  H13 <0> d           0.417   3.123   1.233  0.00  0.00     0.033 H 
ENDROOT
BRANCH   4  17
ATOM     17  C8  <0> d           0.640   3.644  -1.234  0.00  0.00     0.127 C 
ATOM     18  O1  <0> d           1.568   2.875  -1.156  0.00  0.00    -0.298 OA
BRANCH  17  19
ATOM     19  C9  <0> d           0.896   5.125  -1.342  0.00  0.00    -0.021 C 
ATOM     20  H14 <0> d           1.980   5.312  -1.334  0.00  0.00     0.037 H 
ATOM     21  H15 <0> d           0.429   5.641  -0.490  0.00  0.00     0.037 H 
ATOM     22  H16 <0> d           0.466   5.504  -2.281  0.00  0.00     0.037 H 
ENDBRANCH  17  19
ENDBRANCH   4  17
BRANCH   1  23
ATOM     23  C1  <0> d           0.201   0.550   2.117  0.00  0.00    -0.073 C 
ATOM     24  H1  <0> d           0.210  -0.537   1.949  0.00  0.00     0.028 H 
ATOM     25  H2  <0> d          -0.262   0.766   3.091  0.00  0.00     0.028 H 
ATOM     26  H3  <0> d           1.233   0.930   2.110  0.00  0.00     0.028 H 
ENDBRANCH   1  23
TORSDOF 3
