REMARK  0 active torsions:
REMARK  status: ('A' for Active; 'I' for Inactive)
ROOT
ATOM      1  C1  <0> d          -2.385  -0.030   0.026  0.00  0.00    -0.082 A 
ATOM      2  C2  <0> d          -2.406   1.363   0.033  0.00  0.00    -0.081 A 
ATOM      3  C3  <0> d          -1.249   2.083   0.031  0.00  0.00    -0.054 A 
ATOM      4  C4  <0> d          -0.017   1.414   0.010  0.00  0.00     0.073 A 
ATOM      5  C5  <0> d           0.002  -0.004   0.002  0.00  0.00     0.051 A 
ATOM      6  C6  <0> d          -1.207  -0.714   0.010  0.00  0.00    -0.066 A 
ATOM      7  C7  <0> d           1.253  -0.654  -0.013  0.00  0.00     0.223 A 
ATOM      8  N1  <0> d           2.345   0.090  -0.020  0.00  0.00    -0.213 NA
ATOM      9  C8  <0> d           2.283   1.413  -0.012  0.00  0.00     0.090 A 
ATOM     10  N2  <0> d           1.149   2.073   0.002  0.00  0.00    -0.241 NA
ATOM     11  F1  <0> d           1.334  -2.002  -0.021  0.00  0.00    -0.183 F 
ATOM     12  H1  <0> d          -3.317  -0.576   0.032  0.00  0.00     0.083 H 
ATOM     13  H2  <0> d          -3.354   1.880   0.045  0.00  0.00     0.083 H 
ATOM     14  H3  <0> d          -1.281   3.162   0.037  0.00  0.00     0.087 H 
ATOM     15  H4  <0> d          -1.204  -1.794   0.005  0.00  0.00     0.085 H 
ATOM     16  H5  <0> d           3.206   1.973  -0.018  0.00  0.00     0.146 H 
ENDROOT
TORSDOF 0
