REMARK  2 active torsions:
REMARK  status: ('A' for Active; 'I' for Inactive)
REMARK    1  A    between atoms: C1_1  and  C2_2 
REMARK    2  A    between atoms: C3_4  and  N3_10 
ROOT
ATOM      1  C2  <0> d           1.142  -0.664  -0.012  0.00  0.00     0.104 A 
ATOM      2  N1  <0> d           0.002  -0.004   0.002  0.00  0.00    -0.215 NA
ATOM      3  C3  <0> d          -0.016   1.327   0.009  0.00  0.00     0.166 A 
ATOM      4  C4  <0> d           1.194   2.019   0.002  0.00  0.00     0.215 A 
ATOM      5  C5  <0> d           2.373   1.283  -0.014  0.00  0.00     0.223 A 
ATOM      6  N2  <0> d           2.305  -0.046  -0.020  0.00  0.00    -0.320 N 
ATOM      7  O1  <0> d           3.575   1.910  -0.022  0.00  0.00    -0.169 OA
ATOM      8  F1  <0> d           1.220   3.370   0.008  0.00  0.00    -0.197 F 
ATOM      9  H6  <0> d           3.238  -0.628  -0.032  0.00  0.00     0.169 HD
ENDROOT
BRANCH   1  10
ATOM     10  C1  <0> d           1.115  -2.171  -0.020  0.00  0.00    -0.021 C 
ATOM     11  H1  <0> d           0.072  -2.519  -0.012  0.00  0.00     0.037 H 
ATOM     12  H2  <0> d           1.635  -2.551   0.872  0.00  0.00     0.037 H 
ATOM     13  H3  <0> d           1.619  -2.542  -0.924  0.00  0.00     0.037 H 
ENDBRANCH   1  10
BRANCH   3  14
ATOM     14  N3  <0> d          -1.221   2.015   0.019  0.00  0.00    -0.381 N 
ATOM     15  H4  <0> d          -1.226   3.115   0.025  0.00  0.00     0.157 HD
ATOM     16  H5  <0> d          -2.171   1.460   0.020  0.00  0.00     0.157 HD
ENDBRANCH   3  14
TORSDOF 2
