REMARK  8 active torsions:
REMARK  status: ('A' for Active; 'I' for Inactive)
REMARK    1  A    between atoms: C1_1  and  C2_2 
REMARK    2  A    between atoms: C2_2  and  C3_3 
REMARK    3  A    between atoms: C3_3  and  O1_7 
REMARK    4  A    between atoms: O1_7  and  C5_8 
REMARK    5  A    between atoms: C5_8  and  C6_10 
REMARK    6  A    between atoms: C5_8  and  O2_11 
REMARK    7  A    between atoms: O2_11  and  C7_12 
REMARK    8  A    between atoms: C7_12  and  C8_13 
ROOT
ATOM      1  C3  <0> d          -1.649   3.380   0.084  0.00  0.00     0.124 C 
ATOM      2  H1  <0> d          -2.318   2.572  -0.211  0.00  0.00     0.106 H 
ATOM      3  C4  <0> d          -0.764   3.721  -1.041  0.00  0.00     0.091 C 
ATOM      4  N1  <0> d          -0.081   3.984  -1.910  0.00  0.00    -0.195 NA
ENDROOT
BRANCH   1   5
ATOM      5  C2  <0> d          -2.475   4.609   0.474  0.00  0.00    -0.032 C 
ATOM      6  H6  <0> d          -1.812   5.386   0.854  0.00  0.00     0.037 H 
ATOM      7  H7  <0> d          -3.008   4.981  -0.401  0.00  0.00     0.037 H 
BRANCH   5   8
ATOM      8  C1  <0> d          -3.482   4.223   1.559  0.00  0.00    -0.073 C 
ATOM      9  H3  <0> d          -4.070   5.098   1.837  0.00  0.00     0.027 H 
ATOM     10  H4  <0> d          -4.145   3.445   1.179  0.00  0.00     0.027 H 
ATOM     11  H5  <0> d          -2.949   3.850   2.434  0.00  0.00     0.027 H 
ENDBRANCH   5   8
ENDBRANCH   1   5
BRANCH   1  12
ATOM     12  O1  <0> d          -0.861   2.962   1.201  0.00  0.00    -0.342 OA
BRANCH  12  13
ATOM     13  C5  <0> d          -0.641   1.552   1.261  0.00  0.00     0.129 C 
ATOM     14  H2  <0> d           0.036   1.325   2.084  0.00  0.00     0.128 H 
BRANCH  13  15
ATOM     15  C6  <0> d          -0.021   1.076  -0.055  0.00  0.00    -0.031 C 
ATOM     16  H8  <0> d           0.147   0.000  -0.009  0.00  0.00     0.034 H 
ATOM     17  H9  <0> d           0.929   1.586  -0.214  0.00  0.00     0.034 H 
ATOM     18  H10 <0> d          -0.698   1.303  -0.879  0.00  0.00     0.034 H 
ENDBRANCH  13  15
BRANCH  13  19
ATOM     19  O2  <0> d          -1.886   0.883   1.470  0.00  0.00    -0.362 OA
BRANCH  19  20
ATOM     20  C7  <0> d          -2.404   1.019   2.794  0.00  0.00     0.019 C 
ATOM     21  H11 <0> d          -1.657   0.681   3.513  0.00  0.00     0.073 H 
ATOM     22  H12 <0> d          -2.644   2.065   2.985  0.00  0.00     0.073 H 
BRANCH  20  23
ATOM     23  C8  <0> d          -3.669   0.172   2.937  0.00  0.00    -0.056 C 
ATOM     24  H13 <0> d          -3.429  -0.875   2.747  0.00  0.00     0.030 H 
ATOM     25  H14 <0> d          -4.064   0.275   3.948  0.00  0.00     0.030 H 
ATOM     26  H15 <0> d          -4.416   0.509   2.219  0.00  0.00     0.030 H 
ENDBRANCH  20  23
ENDBRANCH  19  20
ENDBRANCH  13  19
ENDBRANCH  12  13
ENDBRANCH   1  12
TORSDOF 8
