REMARK  0 active torsions:
REMARK  status: ('A' for Active; 'I' for Inactive)
ROOT
ATOM      1  C1  <0> d          -0.013   1.076   0.008  0.00  0.00    -0.082 A 
ATOM      2  C2  <0> d          -1.234   1.747   0.017  0.00  0.00    -0.081 A 
ATOM      3  C3  <0> d          -1.288   3.106   0.032  0.00  0.00    -0.054 A 
ATOM      4  C4  <0> d          -0.096   3.852   0.024  0.00  0.00     0.067 A 
ATOM      5  C5  <0> d           1.145   3.168   0.008  0.00  0.00    -0.004 A 
ATOM      6  C6  <0> d           1.162   1.764   0.000  0.00  0.00    -0.071 A 
ATOM      7  C7  <0> d           2.337   3.915   0.000  0.00  0.00    -0.032 A 
ATOM      8  C8  <0> d           2.242   5.280   0.008  0.00  0.00     0.134 A 
ATOM      9  C9  <0> d           0.988   5.890   0.022  0.00  0.00     0.040 A 
ATOM     10  N1  <0> d          -0.120   5.189   0.030  0.00  0.00    -0.257 NA
ATOM     11  F1  <0> d           3.362   6.036   0.001  0.00  0.00    -0.205 F 
ATOM     12  H1  <0> d           0.002  -0.004   0.002  0.00  0.00     0.083 H 
ATOM     13  H2  <0> d          -2.152   1.179   0.018  0.00  0.00     0.083 H 
ATOM     14  H3  <0> d          -2.243   3.611   0.044  0.00  0.00     0.087 H 
ATOM     15  H4  <0> d           2.103   1.232  -0.011  0.00  0.00     0.084 H 
ATOM     16  H5  <0> d           3.299   3.425  -0.011  0.00  0.00     0.089 H 
ATOM     17  H6  <0> d           0.927   6.968   0.028  0.00  0.00     0.119 H 
ENDROOT
TORSDOF 0
