REMARK  4 active torsions:
REMARK  status: ('A' for Active; 'I' for Inactive)
REMARK    1  A    between atoms: C1_1  and  C2_2 
REMARK    2  A    between atoms: C2_2  and  C3_3 
REMARK    3  A    between atoms: C3_3  and  C4_5 
REMARK    4  A    between atoms: C5_6  and  C6_7 
ROOT
ATOM      1  C6  <0> d           2.405   0.035  -0.021  0.00  0.00     0.018 A 
ATOM      2  C7  <0> d           1.203  -0.681  -0.013  0.00  0.00    -0.065 A 
ATOM      3  C8  <0> d           0.002  -0.004   0.002  0.00  0.00    -0.082 A 
ATOM      4  C9  <0> d          -0.017   1.380   0.010  0.00  0.00    -0.083 A 
ATOM      5  C10 <0> d           1.168   2.096   0.002  0.00  0.00    -0.082 A 
ATOM      6  C11 <0> d           2.377   1.434  -0.013  0.00  0.00    -0.065 A 
ATOM      7  H6  <0> d           1.216  -1.761  -0.019  0.00  0.00     0.085 H 
ATOM      8  H7  <0> d          -0.927  -0.555   0.008  0.00  0.00     0.083 H 
ATOM      9  H8  <0> d          -0.961   1.904   0.017  0.00  0.00     0.083 H 
ATOM     10  H9  <0> d           1.145   3.176   0.008  0.00  0.00     0.083 H 
ATOM     11  H10 <0> d           3.301   1.994  -0.019  0.00  0.00     0.085 H 
ENDROOT
BRANCH   1  12
ATOM     12  C5  <0> d           3.657  -0.660  -0.037  0.00  0.00    -0.059 C 
ATOM     13  C4  <0> d           4.684  -1.230  -0.050  0.00  0.00    -0.023 C 
BRANCH  13  14
ATOM     14  C3  <0> d           5.935  -1.925  -0.067  0.00  0.00     0.202 C 
ATOM     15  O1  <0> d           5.956  -3.139  -0.074  0.00  0.00    -0.283 OA
BRANCH  14  16
ATOM     16  C2  <0> d           7.228  -1.149  -0.075  0.00  0.00    -0.001 C 
ATOM     17  H4  <0> d           7.263  -0.569  -0.888  0.00  0.00     0.045 H 
ATOM     18  H5  <0> d           7.284  -0.527   0.818  0.00  0.00     0.045 H 
BRANCH  16  19
ATOM     19  C1  <0> d           8.407  -2.124  -0.092  0.00  0.00    -0.069 C 
ATOM     20  H1  <0> d           8.368  -2.756   0.795  0.00  0.00     0.028 H 
ATOM     21  H2  <0> d           8.351  -2.746  -0.985  0.00  0.00     0.028 H 
ATOM     22  H3  <0> d           9.342  -1.563  -0.098  0.00  0.00     0.028 H 
ENDBRANCH  16  19
ENDBRANCH  14  16
ENDBRANCH  13  14
ENDBRANCH   1  12
TORSDOF 4
