REMARK  1 active torsions:
REMARK  status: ('A' for Active; 'I' for Inactive)
REMARK    1  A    between atoms: C2_2  and  N5_10 
ROOT
ATOM      1  C1  <0> d          -2.448   0.940   0.019  0.00  0.00     0.048 A 
ATOM      2  C2  <0> d          -1.234   1.650   0.017  0.00  0.00     0.062 A 
ATOM      3  C3  <0> d          -1.264   3.013   0.030  0.00  0.00     0.049 A 
ATOM      4  N1  <0> d          -2.469   3.646   0.034  0.00  0.00    -0.068 N 
ATOM      5  C4  <0> d          -3.627   2.923   0.035  0.00  0.00     0.750 A 
ATOM      6  N2  <0> d          -3.591   1.585   0.028  0.00  0.00    -0.071 NA
ATOM      7  N3  <0> d          -4.633   3.792   0.044  0.00  0.00    -0.052 NA
ATOM      8  C5  <0> d          -4.157   5.029   0.049  0.00  0.00     0.125 A 
ATOM      9  N4  <0> d          -2.845   4.995   0.043  0.00  0.00    -0.145 NA
ATOM     10  H1  <0> d          -2.439  -0.140   0.013  0.00  0.00     0.119 H 
ATOM     11  H2  <0> d          -0.345   3.581   0.033  0.00  0.00     0.119 H 
ATOM     12  H3  <0> d          -4.756   5.927   0.056  0.00  0.00     0.150 H 
ENDROOT
BRANCH   2  13
ATOM     13  N5  <0> d          -0.011   0.966   0.007  0.00  0.00    -0.397 N 
ATOM     14  H4  <0> d           0.002  -0.004   0.002  0.00  0.00     0.156 HD
ATOM     15  H5  <0> d           0.822   1.462   0.002  0.00  0.00     0.156 HD
ENDBRANCH   2  13
TORSDOF 1
