REMARK  1 active torsions:
REMARK  status: ('A' for Active; 'I' for Inactive)
REMARK    1  A    between atoms: N2_9  and  C8_10 
ROOT
ATOM      1  C1  <0> d          -0.016   1.362   0.009  0.00  0.00    -0.081 A 
ATOM      2  C2  <0> d           1.167   2.086   0.002  0.00  0.00    -0.081 A 
ATOM      3  C3  <0> d           2.383   1.437  -0.013  0.00  0.00    -0.055 A 
ATOM      4  C4  <0> d           2.422   0.049  -0.021  0.00  0.00     0.064 A 
ATOM      5  C5  <0> d           1.223  -0.684  -0.013  0.00  0.00     0.085 A 
ATOM      6  C6  <0> d           0.002  -0.004   0.002  0.00  0.00    -0.053 A 
ATOM      7  N1  <0> d           1.563  -1.998  -0.024  0.00  0.00    -0.242 NA
ATOM      8  C7  <0> d           2.858  -2.115  -0.037  0.00  0.00     0.067 A 
ATOM      9  N2  <0> d           3.439  -0.885  -0.036  0.00  0.00    -0.335 N 
ATOM     10  H1  <0> d          -0.962   1.883   0.026  0.00  0.00     0.083 H 
ATOM     11  H2  <0> d           1.136   3.165   0.008  0.00  0.00     0.083 H 
ATOM     12  H3  <0> d           3.302   2.005  -0.020  0.00  0.00     0.087 H 
ATOM     13  H4  <0> d          -0.925  -0.558   0.008  0.00  0.00     0.087 H 
ATOM     14  H5  <0> d           3.395  -3.052  -0.047  0.00  0.00     0.143 H 
ENDROOT
BRANCH   9  15
ATOM     15  C8  <0> d           4.876  -0.603  -0.050  0.00  0.00     0.018 A 
ATOM     16  C10 <0> d           5.712  -1.139   1.115  0.00  0.00    -0.044 A 
ATOM     17  C9  <0> d           5.826  -1.782  -0.269  0.00  0.00    -0.044 A 
ATOM     18  H9  <0> d           6.548  -0.529   1.456  0.00  0.00     0.036 H 
ATOM     19  H10 <0> d           5.192  -1.701   1.890  0.00  0.00     0.036 H 
ATOM     20  H7  <0> d           5.381  -2.768  -0.403  0.00  0.00     0.036 H 
ATOM     21  H8  <0> d           6.737  -1.596  -0.837  0.00  0.00     0.036 H 
ATOM     22  H6  <0> d           5.163   0.360  -0.474  0.00  0.00     0.073 H 
ENDBRANCH   9  15
TORSDOF 1
