REMARK  1 active torsions:
REMARK  status: ('A' for Active; 'I' for Inactive)
REMARK    1  A    between atoms: C1_1  and  C2_2 
ROOT
ATOM      1  C2  <0> d          -1.003   3.058   1.151  0.00  0.00    -0.087 C 
ATOM      2  C3  <0> d          -0.952   3.725   0.043  0.00  0.00    -0.100 C 
ATOM      3  C4  <0> d          -0.615   3.120  -1.288  0.00  0.00    -0.035 C 
ATOM      4  C5  <0> d          -0.763   1.598  -1.228  0.00  0.00     0.034 C 
ATOM      5  H1  <0> d          -1.818   1.335  -1.151  0.00  0.00     0.063 H 
ATOM      6  C6  <0> d          -0.013   1.086   0.008  0.00  0.00    -0.046 C 
ATOM      7  C7  <0> d          -0.737   1.583   1.260  0.00  0.00    -0.044 C 
ATOM      8  C8  <0> d          -0.186   0.997  -2.441  0.00  0.00     0.064 C 
ATOM      9  N1  <0> d           0.259   0.532  -3.378  0.00  0.00    -0.197 NA
ATOM     10  H5  <0> d          -1.165   4.783   0.080  0.00  0.00     0.077 H 
ATOM     11  H6  <0> d           0.413   3.373  -1.550  0.00  0.00     0.040 H 
ATOM     12  H7  <0> d          -1.289   3.519  -2.045  0.00  0.00     0.040 H 
ATOM     13  H8  <0> d           0.002  -0.004   0.002  0.00  0.00     0.035 H 
ATOM     14  H9  <0> d           1.009   1.466   0.000  0.00  0.00     0.035 H 
ATOM     15  H10 <0> d          -1.685   1.055   1.364  0.00  0.00     0.039 H 
ATOM     16  H11 <0> d          -0.120   1.388   2.137  0.00  0.00     0.039 H 
ENDROOT
BRANCH   1  17
ATOM     17  C1  <0> d          -1.345   3.807   2.413  0.00  0.00    -0.055 C 
ATOM     18  H2  <0> d          -1.506   4.859   2.178  0.00  0.00     0.033 H 
ATOM     19  H3  <0> d          -2.253   3.390   2.849  0.00  0.00     0.033 H 
ATOM     20  H4  <0> d          -0.525   3.715   3.124  0.00  0.00     0.033 H 
ENDBRANCH   1  17
TORSDOF 1
