REMARK  2 active torsions:
REMARK  status: ('A' for Active; 'I' for Inactive)
REMARK    1  A    between atoms: N1_3  and  C4_6 
REMARK    2  A    between atoms: C4_6  and  C5_7 
ROOT
ATOM      1  C5  <0> d          -0.013   1.086   0.008  0.00  0.00     0.030 C 
ATOM      2  C6  <0> d          -0.725   1.573  -1.185  0.00  0.00     0.060 C 
ATOM      3  N3  <0> d          -1.274   1.950  -2.105  0.00  0.00    -0.197 NA
ATOM      4  H6  <0> d           0.002  -0.004   0.002  0.00  0.00     0.057 H 
ATOM      5  H7  <0> d           1.010   1.463   0.000  0.00  0.00     0.057 H 
ENDROOT
BRANCH   1   6
ATOM      6  C4  <0> d          -0.729   1.579   1.267  0.00  0.00     0.011 C 
ATOM      7  H4  <0> d          -0.744   2.669   1.273  0.00  0.00     0.066 H 
ATOM      8  H5  <0> d          -1.751   1.202   1.275  0.00  0.00     0.066 H 
BRANCH   6   9
ATOM      9  N1  <0> d          -0.020   1.094   2.454  0.00  0.00    -0.349 N 
ATOM     10  C2  <0> d          -0.255  -0.081   3.116  0.00  0.00    -0.003 A 
ATOM     11  C1  <0> d           0.618  -0.132   4.140  0.00  0.00     0.018 A 
ATOM     12  H2  <0> d          -0.996  -0.825   2.864  0.00  0.00     0.113 H 
ATOM     13  N2  <0> d           1.359   0.986   4.110  0.00  0.00    -0.255 NA
ATOM     14  H1  <0> d           0.703  -0.930   4.862  0.00  0.00     0.117 H 
ATOM     15  C3  <0> d           0.982   1.725   3.102  0.00  0.00     0.065 A 
ATOM     16  H3  <0> d           1.403   2.682   2.831  0.00  0.00     0.143 H 
ENDBRANCH   6   9
ENDBRANCH   1   6
TORSDOF 2
