REMARK  1 active torsions:
REMARK  status: ('A' for Active; 'I' for Inactive)
REMARK    1  A    between atoms: C6_6  and  O1_7 
ROOT
ATOM      1  C1  <0> d          -1.274   3.132   0.031  0.00  0.00    -0.050 A 
ATOM      2  C2  <0> d          -0.100   3.860   0.024  0.00  0.00    -0.061 A 
ATOM      3  C3  <0> d           1.106   3.203   0.009  0.00  0.00     0.035 A 
ATOM      4  C4  <0> d           1.204   1.793   0.000  0.00  0.00     0.076 A 
ATOM      5  C5  <0> d          -0.013   1.076   0.008  0.00  0.00    -0.022 A 
ATOM      6  C6  <0> d          -1.216   1.741   0.017  0.00  0.00     0.068 A 
ATOM      7  N1  <0> d           2.468   1.320  -0.015  0.00  0.00    -0.253 NA
ATOM      8  C7  <0> d           3.509   2.105  -0.021  0.00  0.00     0.041 A 
ATOM      9  S1  <0> d           2.812   3.695  -0.006  0.00  0.00    -0.081 SA
ATOM     10  H1  <0> d          -2.229   3.638   0.043  0.00  0.00     0.087 H 
ATOM     11  H2  <0> d          -0.130   4.940   0.030  0.00  0.00     0.085 H 
ATOM     12  H3  <0> d           0.002  -0.004   0.002  0.00  0.00     0.091 H 
ATOM     13  H5  <0> d           4.554   1.831  -0.033  0.00  0.00     0.126 H 
ENDROOT
BRANCH   6  14
ATOM     14  O1  <0> d          -2.372   1.026   0.019  0.00  0.00    -0.361 OA
ATOM     15  H4  <0> d          -2.703   0.815   0.903  0.00  0.00     0.217 HD
ENDBRANCH   6  14
TORSDOF 1
