REMARK  6 active torsions:
REMARK  status: ('A' for Active; 'I' for Inactive)
REMARK    1  A    between atoms: C1_1  and  C2_2 
REMARK    2  A    between atoms: C2_2  and  C3_3 
REMARK    3  A    between atoms: C4_4  and  C10_12 
REMARK    4  A    between atoms: C5_5  and  C8_10 
REMARK    5  A    between atoms: C6_8  and  C7_9 
REMARK    6  A    between atoms: C8_10  and  C9_11 
ROOT
ATOM      1  C3  <0> d           0.731  -0.503   1.223  0.00  0.00    -0.029 A 
ATOM      2  C4  <0> d           2.113  -0.758   1.323  0.00  0.00    -0.031 A 
ATOM      3  C5  <0> d           2.354  -1.188   2.578  0.00  0.00     0.015 A 
ATOM      4  N1  <0> d           1.172  -1.209   3.256  0.00  0.00    -0.362 N 
ATOM      5  H1  <0> d           1.055  -1.478   4.181  0.00  0.00     0.165 HD
ATOM      6  C6  <0> d           0.181  -0.783   2.422  0.00  0.00     0.012 A 
ENDROOT
BRANCH   1   7
ATOM      7  C2  <0> d           0.002  -0.004   0.002  0.00  0.00    -0.042 C 
ATOM      8  H5  <0> d          -1.020  -0.381   0.010  0.00  0.00     0.039 H 
ATOM      9  H6  <0> d           0.512  -0.356  -0.895  0.00  0.00     0.039 H 
BRANCH   7  10
ATOM     10  C1  <0> d          -0.019   1.526   0.010  0.00  0.00    -0.073 C 
ATOM     11  H2  <0> d           1.004   1.903   0.003  0.00  0.00     0.028 H 
ATOM     12  H3  <0> d          -0.546   1.887  -0.873  0.00  0.00     0.028 H 
ATOM     13  H4  <0> d          -0.529   1.877   0.907  0.00  0.00     0.028 H 
ENDBRANCH   7  10
ENDBRANCH   1   7
BRANCH   6  14
ATOM     14  C7  <0> d          -1.277  -0.651   2.778  0.00  0.00    -0.037 C 
ATOM     15  H7  <0> d          -1.790  -1.588   2.563  0.00  0.00     0.035 H 
ATOM     16  H8  <0> d          -1.373  -0.418   3.838  0.00  0.00     0.035 H 
ATOM     17  H9  <0> d          -1.724   0.150   2.188  0.00  0.00     0.035 H 
ENDBRANCH   6  14
BRANCH   2  18
ATOM     18  C10 <0> d           3.134  -0.582   0.229  0.00  0.00    -0.049 C 
ATOM     19  H15 <0> d           3.537   0.430   0.267  0.00  0.00     0.033 H 
ATOM     20  H16 <0> d           3.942  -1.300   0.367  0.00  0.00     0.033 H 
ATOM     21  H17 <0> d           2.662  -0.749  -0.739  0.00  0.00     0.033 H 
ENDBRANCH   2  18
BRANCH   3  22
ATOM     22  C8  <0> d           3.699  -1.579   3.135  0.00  0.00    -0.030 C 
ATOM     23  H10 <0> d           3.561  -2.275   3.962  0.00  0.00     0.041 H 
ATOM     24  H11 <0> d           4.291  -2.056   2.353  0.00  0.00     0.041 H 
BRANCH  22  25
ATOM     25  C9  <0> d           4.427  -0.330   3.635  0.00  0.00    -0.071 C 
ATOM     26  H12 <0> d           5.400  -0.613   4.037  0.00  0.00     0.028 H 
ATOM     27  H13 <0> d           4.565   0.366   2.807  0.00  0.00     0.028 H 
ATOM     28  H14 <0> d           3.835   0.147   4.416  0.00  0.00     0.028 H 
ENDBRANCH  22  25
ENDBRANCH   3  22
TORSDOF 6
