REMARK  2 active torsions:
REMARK  status: ('A' for Active; 'I' for Inactive)
REMARK    1  A    between atoms: C2_2  and  C3_3 
REMARK    2  A    between atoms: C3_3  and  N1_4 
ROOT
ATOM      1  C1  <0> d          -2.083   6.153  -2.031  0.00  0.00    -0.152 C 
ATOM      2  C2  <0> d          -1.791   5.027  -2.191  0.00  0.00    -0.087 C 
ATOM      3  H1  <0> d          -2.356   7.208  -1.881  0.00  0.00     0.166 H 
ENDROOT
BRANCH   2   4
ATOM      4  C3  <0> d          -1.425   3.615  -2.391  0.00  0.00     0.166 C 
ATOM      5  H2  <0> d          -2.312   3.049  -2.713  0.00  0.00     0.099 H 
ATOM      6  H3  <0> d          -0.645   3.545  -3.164  0.00  0.00     0.099 H 
BRANCH   4   7
ATOM      7  N1  <0> d          -0.918   3.057  -1.131  0.00  0.00     0.100 N 
ATOM      8  C8  <0> d          -1.776   3.439  -0.003  0.00  0.00     0.120 C 
ATOM      9  C7  <0> d          -1.092   3.050   1.312  0.00  0.00     0.015 C 
ATOM     10  H10 <0> d          -1.945   4.526  -0.022  0.00  0.00     0.080 H 
ATOM     11  H11 <0> d          -2.741   2.917  -0.083  0.00  0.00     0.080 H 
ATOM     12  C6  <0> d          -0.733   1.580   1.245  0.00  0.00     0.130 C 
ATOM     13  H8  <0> d          -1.774   3.222   2.158  0.00  0.00     0.046 H 
ATOM     14  H9  <0> d          -0.177   3.645   1.452  0.00  0.00     0.046 H 
ATOM     15  C5  <0> d          -0.013   1.086   0.008  0.00  0.00     0.015 C 
ATOM     16  O1  <0> d          -1.014   0.827   2.146  0.00  0.00    -0.298 OA
ATOM     17  C4  <0> d          -0.766   1.599  -1.224  0.00  0.00     0.120 C 
ATOM     18  H6  <0> d           0.004  -0.014  -0.005  0.00  0.00     0.046 H 
ATOM     19  H7  <0> d           1.018   1.469  -0.006  0.00  0.00     0.046 H 
ATOM     20  H4  <0> d          -1.759   1.129  -1.270  0.00  0.00     0.080 H 
ATOM     21  H5  <0> d          -0.199   1.347  -2.133  0.00  0.00     0.080 H 
ENDBRANCH   4   7
ENDBRANCH   2   4
TORSDOF 2
