REMARK  3 active torsions:
REMARK  status: ('A' for Active; 'I' for Inactive)
REMARK    1  A    between atoms: C1_1  and  C2_2 
REMARK    2  A    between atoms: C2_2  and  O1_3 
REMARK    3  A    between atoms: O1_3  and  C3_4 
ROOT
ATOM      1  C3  <0> d          -0.068   1.127   2.404  0.00  0.00     0.038 C 
ATOM      2  C4  <0> d          -0.666  -0.212   2.841  0.00  0.00    -0.041 C 
ATOM      3  C5  <0> d          -0.009  -0.662   4.147  0.00  0.00    -0.063 C 
ATOM      4  C6  <0> d          -0.260   0.387   5.232  0.00  0.00    -0.065 C 
ATOM      5  C7  <0> d           0.338   1.726   4.795  0.00  0.00    -0.063 C 
ATOM      6  C8  <0> d          -0.319   2.176   3.489  0.00  0.00    -0.041 C 
ATOM      7  H6  <0> d           1.005   1.031   2.183  0.00  0.00     0.083 H 
ATOM      8  H7  <0> d          -1.749  -0.097   2.996  0.00  0.00     0.036 H 
ATOM      9  H8  <0> d          -0.485  -0.967   2.061  0.00  0.00     0.036 H 
ATOM     10  H9  <0> d          -0.438  -1.625   4.461  0.00  0.00     0.033 H 
ATOM     11  H10 <0> d           1.074  -0.777   3.993  0.00  0.00     0.033 H 
ATOM     12  H11 <0> d          -1.343   0.502   5.387  0.00  0.00     0.033 H 
ATOM     13  H12 <0> d           0.212   0.064   6.172  0.00  0.00     0.033 H 
ATOM     14  H13 <0> d           0.157   2.480   5.575  0.00  0.00     0.033 H 
ATOM     15  H14 <0> d           1.421   1.611   4.641  0.00  0.00     0.033 H 
ATOM     16  H15 <0> d           0.110   3.138   3.175  0.00  0.00     0.036 H 
ATOM     17  H16 <0> d          -1.402   2.291   3.644  0.00  0.00     0.036 H 
ENDROOT
BRANCH   1  18
ATOM     18  O1  <0> d          -0.682   1.547   1.184  0.00  0.00    -0.386 OA
BRANCH  18  19
ATOM     19  C2  <0> d          -0.013   1.086   0.008  0.00  0.00     0.017 C 
ATOM     20  H4  <0> d           0.002  -0.014   0.002  0.00  0.00     0.073 H 
ATOM     21  H5  <0> d           1.019   1.466   0.000  0.00  0.00     0.073 H 
BRANCH  19  22
ATOM     22  C1  <0> d          -0.753   1.593  -1.232  0.00  0.00    -0.056 C 
ATOM     23  H1  <0> d          -0.238   1.238  -2.136  0.00  0.00     0.030 H 
ATOM     24  H2  <0> d          -0.768   2.693  -1.225  0.00  0.00     0.030 H 
ATOM     25  H3  <0> d          -1.785   1.212  -1.224  0.00  0.00     0.030 H 
ENDBRANCH  19  22
ENDBRANCH  18  19
ENDBRANCH   1  18
TORSDOF 3
