REMARK  2 active torsions:
REMARK  status: ('A' for Active; 'I' for Inactive)
REMARK    1  A    between atoms: C1_1  and  C2_2 
REMARK    2  A    between atoms: C4_4  and  N3_10 
ROOT
ATOM      1  C2  <0> d           0.002  -0.004   0.002  0.00  0.00    -0.042 A 
ATOM      2  C3  <0> d           0.006  -0.695  -1.197  0.00  0.00    -0.048 A 
ATOM      3  C4  <0> d           0.025  -2.088  -1.161  0.00  0.00     0.066 A 
ATOM      4  C5  <0> d           0.039  -2.733   0.085  0.00  0.00     0.162 A 
ATOM      5  N1  <0> d           0.035  -2.024   1.208  0.00  0.00    -0.247 NA
ATOM      6  C6  <0> d           0.023  -0.709   1.196  0.00  0.00     0.009 A 
ATOM      7  C7  <0> d           0.059  -4.163   0.145  0.00  0.00     0.122 C 
ATOM      8  N2  <0> d           0.075  -5.298   0.194  0.00  0.00    -0.190 NA
ATOM      9  H4  <0> d          -0.006  -0.167  -2.139  0.00  0.00     0.087 H 
ATOM     10  H5  <0> d           0.025  -0.169   2.131  0.00  0.00     0.115 H 
ENDROOT
BRANCH   3  11
ATOM     11  N3  <0> d           0.029  -2.826  -2.339  0.00  0.00    -0.397 N 
ATOM     12  H6  <0> d           0.018  -2.372  -3.196  0.00  0.00     0.156 HD
ATOM     13  H7  <0> d           0.042  -3.795  -2.304  0.00  0.00     0.156 HD
ENDBRANCH   3  11
BRANCH   1  14
ATOM     14  C1  <0> d          -0.018   1.503   0.010  0.00  0.00    -0.050 C 
ATOM     15  H1  <0> d           1.004   1.880   0.003  0.00  0.00     0.033 H 
ATOM     16  H2  <0> d          -0.545   1.864  -0.873  0.00  0.00     0.033 H 
ATOM     17  H3  <0> d          -0.529   1.854   0.907  0.00  0.00     0.033 H 
ENDBRANCH   1  14
TORSDOF 2
