REMARK  4 active torsions:
REMARK  status: ('A' for Active; 'I' for Inactive)
REMARK    1  A    between atoms: C1_1  and  C2_2 
REMARK    2  A    between atoms: C5_5  and  C8_8 
REMARK    3  A    between atoms: C8_8  and  C9_10 
REMARK    4  A    between atoms: C8_8  and  O1_11 
ROOT
ATOM      1  C2  <0> d          -0.056   4.267   0.025  0.00  0.00    -0.062 A 
ATOM      2  C3  <0> d           1.151   3.592   0.010  0.00  0.00    -0.077 A 
ATOM      3  C4  <0> d           1.169   2.210   0.003  0.00  0.00    -0.074 A 
ATOM      4  C5  <0> d          -0.018   1.503   0.010  0.00  0.00    -0.030 A 
ATOM      5  C6  <0> d          -1.225   2.178   0.020  0.00  0.00    -0.074 A 
ATOM      6  C7  <0> d          -1.244   3.560   0.032  0.00  0.00    -0.077 A 
ATOM      7  H5  <0> d           2.078   4.145   0.004  0.00  0.00     0.084 H 
ATOM      8  H6  <0> d           2.112   1.683  -0.009  0.00  0.00     0.084 H 
ATOM      9  H7  <0> d          -2.153   1.625   0.021  0.00  0.00     0.084 H 
ATOM     10  H8  <0> d          -2.186   4.087   0.044  0.00  0.00     0.084 H 
ENDROOT
BRANCH   4  11
ATOM     11  C8  <0> d           0.002  -0.004   0.002  0.00  0.00     0.057 C 
ATOM     12  H1  <0> d           0.969  -0.352  -0.361  0.00  0.00     0.089 H 
BRANCH  11  13
ATOM     13  C9  <0> d          -0.228  -0.525   1.422  0.00  0.00    -0.049 C 
ATOM     14  H9  <0> d          -1.195  -0.177   1.785  0.00  0.00     0.031 H 
ATOM     15  H10 <0> d          -0.213  -1.615   1.416  0.00  0.00     0.031 H 
ATOM     16  H11 <0> d           0.561  -0.155   2.077  0.00  0.00     0.031 H 
ENDBRANCH  11  13
BRANCH  11  17
ATOM     17  O1  <0> d          -1.032  -0.490  -0.857  0.00  0.00    -0.391 OA
ATOM     18  H12 <0> d          -1.922  -0.218  -0.594  0.00  0.00     0.210 HD
ENDBRANCH  11  17
ENDBRANCH   4  11
BRANCH   1  19
ATOM     19  C1  <0> d          -0.076   5.774   0.034  0.00  0.00    -0.051 C 
ATOM     20  H2  <0> d          -0.091   6.143  -0.992  0.00  0.00     0.033 H 
ATOM     21  H3  <0> d          -0.966   6.122   0.558  0.00  0.00     0.033 H 
ATOM     22  H4  <0> d           0.814   6.147   0.541  0.00  0.00     0.033 H 
ENDBRANCH   1  19
TORSDOF 4
