REMARK  8 active torsions:
REMARK  status: ('A' for Active; 'I' for Inactive)
REMARK    1  A    between atoms: C1_1  and  C2_2 
REMARK    2  A    between atoms: C2_2  and  C3_4 
REMARK    3  A    between atoms: C2_2  and  C9_10 
REMARK    4  A    between atoms: C3_4  and  C4_5 
REMARK    5  A    between atoms: C4_5  and  C5_6 
REMARK    6  A    between atoms: C6_7  and  C7_8 
REMARK    7  A    between atoms: C6_7  and  C8_9 
REMARK    8  A    between atoms: C9_10  and  O1_11 
ROOT
ATOM      1  C3  <0> d           3.231   3.325   0.514  0.00  0.00    -0.057 C 
ATOM      2  H5  <0> d           3.954   3.153   1.311  0.00  0.00     0.034 H 
ATOM      3  H6  <0> d           3.715   3.185  -0.453  0.00  0.00     0.034 H 
ENDROOT
BRANCH   1   4
ATOM      4  C2  <0> d           2.073   2.335   0.653  0.00  0.00    -0.037 C 
ATOM      5  H1  <0> d           1.534   2.534   1.579  0.00  0.00     0.042 H 
BRANCH   4   6
ATOM      6  C1  <0> d           1.121   2.493  -0.535  0.00  0.00    -0.071 C 
ATOM      7  H2  <0> d           1.660   2.294  -1.461  0.00  0.00     0.028 H 
ATOM      8  H3  <0> d           0.296   1.788  -0.436  0.00  0.00     0.028 H 
ATOM      9  H4  <0> d           0.730   3.510  -0.553  0.00  0.00     0.028 H 
ENDBRANCH   4   6
BRANCH   4  10
ATOM     10  C9  <0> d           2.623   0.907   0.679  0.00  0.00     0.020 C 
ATOM     11  H16 <0> d           3.367   0.819   1.470  0.00  0.00     0.074 H 
ATOM     12  H17 <0> d           3.084   0.678  -0.281  0.00  0.00     0.074 H 
BRANCH  10  13
ATOM     13  O1  <0> d           1.555  -0.010   0.925  0.00  0.00    -0.400 OA
ATOM     14  H18 <0> d           1.831  -0.936   0.955  0.00  0.00     0.209 HD
ENDBRANCH  10  13
ENDBRANCH   4  10
ENDBRANCH   1   4
BRANCH   1  15
ATOM     15  C4  <0> d           2.694   4.755   0.613  0.00  0.00    -0.049 C 
ATOM     16  H7  <0> d           1.971   4.927  -0.184  0.00  0.00     0.038 H 
ATOM     17  H8  <0> d           2.210   4.895   1.579  0.00  0.00     0.038 H 
BRANCH  15  18
ATOM     18  C5  <0> d           3.835   5.730   0.476  0.00  0.00    -0.101 C 
ATOM     19  C6  <0> d           4.025   6.649   1.391  0.00  0.00    -0.091 C 
ATOM     20  H9  <0> d           4.496   5.671  -0.376  0.00  0.00     0.077 H 
BRANCH  19  21
ATOM     21  C7  <0> d           3.024   6.821   2.504  0.00  0.00    -0.055 C 
ATOM     22  H10 <0> d           3.251   6.122   3.308  0.00  0.00     0.033 H 
ATOM     23  H11 <0> d           3.076   7.841   2.884  0.00  0.00     0.033 H 
ATOM     24  H12 <0> d           2.021   6.625   2.125  0.00  0.00     0.033 H 
ENDBRANCH  19  21
BRANCH  19  25
ATOM     25  C8  <0> d           5.244   7.532   1.329  0.00  0.00    -0.055 C 
ATOM     26  H13 <0> d           5.018   8.423   0.742  0.00  0.00     0.033 H 
ATOM     27  H14 <0> d           5.530   7.826   2.339  0.00  0.00     0.033 H 
ATOM     28  H15 <0> d           6.064   6.988   0.862  0.00  0.00     0.033 H 
ENDBRANCH  19  25
ENDBRANCH  15  18
ENDBRANCH   1  15
TORSDOF 8
