REMARK  4 active torsions:
REMARK  status: ('A' for Active; 'I' for Inactive)
REMARK    1  A    between atoms: C1_1  and  C2_2 
REMARK    2  A    between atoms: C3_3  and  C7_9 
REMARK    3  A    between atoms: C5_6  and  C6_8 
REMARK    4  A    between atoms: C7_9  and  O1_10 
ROOT
ATOM      1  C2  <0> d           1.194   2.057   0.002  0.00  0.00     0.042 A 
ATOM      2  C3  <0> d          -0.017   1.381   0.010  0.00  0.00     0.007 A 
ATOM      3  C4  <0> d           0.002  -0.004   0.002  0.00  0.00     0.014 A 
ATOM      4  N1  <0> d           1.167  -0.632  -0.013  0.00  0.00    -0.245 NA
ATOM      5  C5  <0> d           2.298   0.044  -0.020  0.00  0.00     0.122 A 
ATOM      6  N2  <0> d           2.319   1.362  -0.013  0.00  0.00    -0.238 NA
ATOM      7  H4  <0> d          -0.921  -0.564   0.007  0.00  0.00     0.115 H 
ENDROOT
BRANCH   2   8
ATOM      8  C7  <0> d          -1.321   2.135   0.020  0.00  0.00     0.044 C 
ATOM      9  H8  <0> d          -1.375   2.757   0.914  0.00  0.00     0.081 H 
ATOM     10  H9  <0> d          -1.383   2.767  -0.866  0.00  0.00     0.081 H 
BRANCH   8  11
ATOM     11  O1  <0> d          -2.408   1.207   0.020  0.00  0.00    -0.396 OA
ATOM     12  H10 <0> d          -3.281   1.623   0.027  0.00  0.00     0.209 HD
ENDBRANCH   8  11
ENDBRANCH   2   8
BRANCH   1  13
ATOM     13  C1  <0> d           1.227   3.564   0.009  0.00  0.00    -0.035 C 
ATOM     14  H1  <0> d           1.245   3.922   1.038  0.00  0.00     0.035 H 
ATOM     15  H2  <0> d           2.120   3.910  -0.511  0.00  0.00     0.035 H 
ATOM     16  H3  <0> d           0.341   3.950  -0.495  0.00  0.00     0.035 H 
ENDBRANCH   1  13
BRANCH   5  17
ATOM     17  C6  <0> d           3.603  -0.710  -0.037  0.00  0.00    -0.019 C 
ATOM     18  H5  <0> d           3.908  -0.886  -1.068  0.00  0.00     0.037 H 
ATOM     19  H6  <0> d           4.368  -0.124   0.473  0.00  0.00     0.037 H 
ATOM     20  H7  <0> d           3.477  -1.665   0.473  0.00  0.00     0.037 H 
ENDBRANCH   5  17
TORSDOF 4
