REMARK  1 active torsions:
REMARK  status: ('A' for Active; 'I' for Inactive)
REMARK    1  A    between atoms: C1_1  and  C2_2 
ROOT
ATOM      1  C2  <0> d           0.002  -0.004   0.002  0.00  0.00    -0.060 A 
ATOM      2  C3  <0> d           0.005  -0.677  -1.222  0.00  0.00    -0.076 A 
ATOM      3  C4  <0> d           0.024  -2.032  -1.291  0.00  0.00    -0.066 A 
ATOM      4  C5  <0> d           0.040  -2.789  -0.103  0.00  0.00     0.050 A 
ATOM      5  C6  <0> d           0.037  -2.082   1.188  0.00  0.00     0.092 A 
ATOM      6  C7  <0> d           0.022  -0.670   1.184  0.00  0.00    -0.047 A 
ATOM      7  N1  <0> d           0.054  -3.007   2.130  0.00  0.00    -0.172 NA
ATOM      8  N2  <0> d           0.068  -4.272   1.531  0.00  0.00    -0.253 N 
ATOM      9  H1  <0> d           0.082  -5.115   2.010  0.00  0.00     0.191 HD
ATOM     10  C8  <0> d           0.060  -4.146   0.195  0.00  0.00     0.207 A 
ATOM     11  O1  <0> d           0.069  -5.162  -0.704  0.00  0.00    -0.170 OA
ATOM     12  H5  <0> d          -0.007  -0.103  -2.137  0.00  0.00     0.084 H 
ATOM     13  H6  <0> d           0.026  -2.528  -2.251  0.00  0.00     0.085 H 
ATOM     14  H7  <0> d           0.023  -0.124   2.115  0.00  0.00     0.088 H 
ENDROOT
BRANCH   1  15
ATOM     15  C1  <0> d          -0.018   1.503   0.010  0.00  0.00    -0.051 C 
ATOM     16  H2  <0> d           1.004   1.880   0.003  0.00  0.00     0.033 H 
ATOM     17  H3  <0> d          -0.545   1.864  -0.873  0.00  0.00     0.033 H 
ATOM     18  H4  <0> d          -0.529   1.854   0.907  0.00  0.00     0.033 H 
ENDBRANCH   1  15
TORSDOF 1
