REMARK  2 active torsions:
REMARK  status: ('A' for Active; 'I' for Inactive)
REMARK    1  A    between atoms: C2_2  and  N3_9 
REMARK    2  A    between atoms: C3_3  and  N2_8 
ROOT
ATOM      1  C1  <0> d           1.200   2.071   0.002  0.00  0.00    -0.016 A 
ATOM      2  C2  <0> d          -0.017   1.396   0.010  0.00  0.00     0.056 A 
ATOM      3  C3  <0> d           0.002  -0.004   0.002  0.00  0.00     0.070 A 
ATOM      4  C4  <0> d           1.222  -0.658  -0.013  0.00  0.00     0.031 A 
ATOM      5  N1  <0> d           2.353   0.022  -0.021  0.00  0.00    -0.246 NA
ATOM      6  C5  <0> d           2.374   1.342  -0.014  0.00  0.00     0.128 A 
ATOM      7 Cl1  <0> d           3.898   2.174  -0.025  0.00  0.00    -0.062 Cl
ATOM      8  H1  <0> d           1.226   3.151   0.007  0.00  0.00     0.092 H 
ATOM      9  H2  <0> d           1.248  -1.738  -0.019  0.00  0.00     0.118 H 
ENDROOT
BRANCH   2  10
ATOM     10  N3  <0> d          -1.224   2.095   0.019  0.00  0.00    -0.397 N 
ATOM     11  H5  <0> d          -2.177   1.547   0.025  0.00  0.00     0.156 HD
ATOM     12  H6  <0> d          -1.222   3.195   0.021  0.00  0.00     0.156 HD
ENDBRANCH   2  10
BRANCH   3  13
ATOM     13  N2  <0> d          -1.195  -0.732   0.010  0.00  0.00    -0.396 N 
ATOM     14  H3  <0> d          -1.171  -1.831   0.004  0.00  0.00     0.156 HD
ATOM     15  H4  <0> d          -2.160  -0.203   0.022  0.00  0.00     0.156 HD
ENDBRANCH   3  13
TORSDOF 2
