REMARK  5 active torsions:
REMARK  status: ('A' for Active; 'I' for Inactive)
REMARK    1  A    between atoms: C1_1  and  C2_2 
REMARK    2  A    between atoms: C3_3  and  C9_11 
REMARK    3  A    between atoms: C4_4  and  O1_9 
REMARK    4  A    between atoms: C7_7  and  N1_8 
REMARK    5  A    between atoms: O1_9  and  C8_10 
ROOT
ATOM      1  C2  <0> d           0.002  -0.004   0.002  0.00  0.00    -0.027 A 
ATOM      2  C3  <0> d           0.006  -0.688  -1.198  0.00  0.00    -0.021 A 
ATOM      3  C4  <0> d           0.025  -2.075  -1.206  0.00  0.00     0.074 A 
ATOM      4  C5  <0> d           0.040  -2.776  -0.009  0.00  0.00    -0.048 A 
ATOM      5  C6  <0> d           0.036  -2.094   1.192  0.00  0.00    -0.054 A 
ATOM      6  C7  <0> d           0.023  -0.705   1.200  0.00  0.00     0.032 A 
ATOM      7  H4  <0> d           0.054  -3.856  -0.016  0.00  0.00     0.087 H 
ATOM      8  H5  <0> d           0.047  -2.640   2.123  0.00  0.00     0.087 H 
ENDROOT
BRANCH   3   9
ATOM      9  O1  <0> d           0.028  -2.748  -2.388  0.00  0.00    -0.355 OA
BRANCH   9  10
ATOM     10  C8  <0> d           0.047  -4.175  -2.321  0.00  0.00     0.010 C 
ATOM     11  H8  <0> d           0.945  -4.502  -1.796  0.00  0.00     0.066 H 
ATOM     12  H9  <0> d          -0.835  -4.526  -1.787  0.00  0.00     0.066 H 
ATOM     13  H10 <0> d           0.048  -4.586  -3.331  0.00  0.00     0.066 H 
ENDBRANCH   9  10
ENDBRANCH   3   9
BRANCH   2  14
ATOM     14  C9  <0> d          -0.011   0.072  -2.499  0.00  0.00    -0.048 C 
ATOM     15  H11 <0> d           1.012   0.270  -2.817  0.00  0.00     0.033 H 
ATOM     16  H12 <0> d          -0.521  -0.520  -3.259  0.00  0.00     0.033 H 
ATOM     17  H13 <0> d          -0.537   1.017  -2.361  0.00  0.00     0.033 H 
ENDBRANCH   2  14
BRANCH   1  18
ATOM     18  C1  <0> d          -0.018   1.503   0.010  0.00  0.00    -0.049 C 
ATOM     19  H1  <0> d           1.004   1.880   0.003  0.00  0.00     0.033 H 
ATOM     20  H2  <0> d          -0.545   1.864  -0.873  0.00  0.00     0.033 H 
ATOM     21  H3  <0> d          -0.529   1.854   0.907  0.00  0.00     0.033 H 
ENDBRANCH   1  18
BRANCH   6  22
ATOM     22  N1  <0> d           0.025  -0.012   2.416  0.00  0.00    -0.399 N 
ATOM     23  H6  <0> d           0.012   0.958   2.422  0.00  0.00     0.156 HD
ATOM     24  H7  <0> d           0.040  -0.502   3.253  0.00  0.00     0.156 HD
ENDBRANCH   6  22
TORSDOF 5
