REMARK  0 active torsions:
REMARK  status: ('A' for Active; 'I' for Inactive)
ROOT
ATOM      1  C1  <0> d           2.307   0.029  -0.019  0.00  0.00     0.069 A 
ATOM      2  N1  <0> d           2.328   1.375  -0.013  0.00  0.00    -0.226 NA
ATOM      3  H1  <0> d           1.210  -1.744  -0.018  0.00  0.00     0.169 HD
ATOM      4  C2  <0> d           1.158   2.092   0.002  0.00  0.00     0.143 A 
ATOM      5  C3  <0> d          -0.017   1.398   0.010  0.00  0.00     0.065 A 
ATOM      6  C4  <0> d           0.002  -0.004   0.002  0.00  0.00     0.256 A 
ATOM      7  O1  <0> d          -1.043  -0.638   0.008  0.00  0.00    -0.267 OA
ATOM      8  N2  <0> d           1.189  -0.644  -0.012  0.00  0.00    -0.317 N 
ATOM      9  C5  <0> d          -1.124   2.424   0.026  0.00  0.00     0.042 A 
ATOM     10  C6  <0> d          -0.384   3.746   0.034  0.00  0.00     0.227 A 
ATOM     11  O2  <0> d          -0.877   4.854   0.049  0.00  0.00    -0.273 OA
ATOM     12  N3  <0> d           0.927   3.448   0.011  0.00  0.00    -0.311 N 
ATOM     13  H2  <0> d           3.164  -0.484  -0.030  0.00  0.00     0.143 H 
ATOM     14  H3  <0> d          -1.751   2.348   0.927  0.00  0.00     0.054 H 
ATOM     15  H4  <0> d          -1.761   2.365  -0.869  0.00  0.00     0.054 H 
ATOM     16  H5  <0> d           1.675   4.255   0.002  0.00  0.00     0.170 HD
ENDROOT
TORSDOF 0
