REMARK  2 active torsions:
REMARK  status: ('A' for Active; 'I' for Inactive)
REMARK    1  A    between atoms: C1_1  and  C2_2 
REMARK    2  A    between atoms: C2_2  and  C3_3 
ROOT
ATOM      1  C3  <0> d           3.291   2.569  -0.016  0.00  0.00     0.054 A 
ATOM      2  C4  <0> d           2.603   1.419  -0.015  0.00  0.00    -0.042 A 
ATOM      3  C5  <0> d           1.183   1.792   0.000  0.00  0.00     0.000 A 
ATOM      4  C6  <0> d          -0.013   1.076   0.008  0.00  0.00    -0.070 A 
ATOM      5  C7  <0> d          -1.204   1.746   0.017  0.00  0.00    -0.082 A 
ATOM      6  C8  <0> d          -1.230   3.133   0.030  0.00  0.00    -0.080 A 
ATOM      7  C9  <0> d          -0.057   3.859   0.023  0.00  0.00    -0.049 A 
ATOM      8  C10 <0> d           1.164   3.197   0.008  0.00  0.00     0.086 A 
ATOM      9  O1  <0> d           2.446   3.615  -0.002  0.00  0.00    -0.314 OA
ATOM     10  H6  <0> d           3.011   0.420  -0.024  0.00  0.00     0.088 H 
ATOM     11  H7  <0> d           0.002  -0.004   0.002  0.00  0.00     0.084 H 
ATOM     12  H8  <0> d          -2.131   1.193   0.019  0.00  0.00     0.083 H 
ATOM     13  H9  <0> d          -2.178   3.651   0.042  0.00  0.00     0.083 H 
ATOM     14  H10 <0> d          -0.088   4.938   0.029  0.00  0.00     0.087 H 
ENDROOT
BRANCH   1  15
ATOM     15  C2  <0> d           4.794   2.675  -0.030  0.00  0.00    -0.024 C 
ATOM     16  H4  <0> d           5.099   3.586   0.486  0.00  0.00     0.042 H 
ATOM     17  H5  <0> d           5.224   1.810   0.475  0.00  0.00     0.042 H 
BRANCH  15  18
ATOM     18  C1  <0> d           5.289   2.719  -1.477  0.00  0.00    -0.071 C 
ATOM     19  H1  <0> d           6.376   2.796  -1.487  0.00  0.00     0.028 H 
ATOM     20  H2  <0> d           4.984   1.809  -1.993  0.00  0.00     0.028 H 
ATOM     21  H3  <0> d           4.859   3.584  -1.982  0.00  0.00     0.028 H 
ENDBRANCH  15  18
ENDBRANCH   1  15
TORSDOF 2
