REMARK  4 active torsions:
REMARK  status: ('A' for Active; 'I' for Inactive)
REMARK    1  A    between atoms: C1_1  and  C2_2 
REMARK    2  A    between atoms: C2_2  and  C4_4 
REMARK    3  A    between atoms: C4_4  and  O1_5 
REMARK    4  A    between atoms: O1_5  and  C5_6 
REMARK       I    between atoms: C5_6  and  N1_8 
ROOT
ATOM      1  C4  <0> d          -1.176   3.222   0.025  0.00  0.00     0.050 C 
ATOM      2  H6  <0> d          -1.699   3.583  -0.860  0.00  0.00     0.082 H 
ATOM      3  H7  <0> d          -1.691   3.574   0.919  0.00  0.00     0.082 H 
ENDROOT
BRANCH   1   4
ATOM      4  C2  <0> d          -1.156   1.715   0.017  0.00  0.00    -0.069 C 
ATOM      5  C3  <0> d          -0.013   1.076   0.008  0.00  0.00    -0.117 C 
ATOM      6  H4  <0> d           0.002  -0.004   0.002  0.00  0.00     0.067 H 
ATOM      7  H5  <0> d           0.915   1.629   0.002  0.00  0.00     0.067 H 
BRANCH   4   8
ATOM      8  C1  <0> d          -2.451   0.944   0.019  0.00  0.00    -0.053 C 
ATOM      9  H1  <0> d          -2.758   0.753   1.047  0.00  0.00     0.033 H 
ATOM     10  H2  <0> d          -3.221   1.526  -0.488  0.00  0.00     0.033 H 
ATOM     11  H3  <0> d          -2.310  -0.004  -0.501  0.00  0.00     0.033 H 
ENDBRANCH   4   8
ENDBRANCH   1   4
BRANCH   1  12
ATOM     12  O1  <0> d           0.186   3.725   0.021  0.00  0.00    -0.300 OA
BRANCH  12  13
ATOM     13  C5  <0> d           0.344   5.062   0.028  0.00  0.00     0.358 C 
ATOM     14  O2  <0> d          -0.629   5.789   0.036  0.00  0.00    -0.239 OA
ATOM     15  N1  <0> d           1.583   5.594   0.025  0.00  0.00    -0.346 N 
ATOM     16  H8  <0> d           2.360   5.013   0.018  0.00  0.00     0.161 HD
ATOM     17  H9  <0> d           1.697   6.557   0.030  0.00  0.00     0.161 HD
ENDBRANCH  12  13
ENDBRANCH   1  12
TORSDOF 4
