REMARK  2 active torsions:
REMARK  status: ('A' for Active; 'I' for Inactive)
REMARK    1  A    between atoms: C3_3  and  N3_13 
REMARK    2  A    between atoms: C6_6  and  C7_7 
ROOT
ATOM      1  C1  <0> d          -1.194  -0.718   0.015  0.00  0.00    -0.070 A 
ATOM      2  C2  <0> d          -1.174  -2.097   0.002  0.00  0.00    -0.057 A 
ATOM      3  C3  <0> d           0.040  -2.774  -0.013  0.00  0.00     0.025 A 
ATOM      4  C4  <0> d           1.234  -2.064  -0.020  0.00  0.00    -0.057 A 
ATOM      5  C5  <0> d           1.217  -0.685  -0.013  0.00  0.00    -0.070 A 
ATOM      6  C6  <0> d           0.002  -0.004   0.002  0.00  0.00    -0.023 A 
ATOM      7  H2  <0> d          -2.137  -0.192   0.031  0.00  0.00     0.084 H 
ATOM      8  H3  <0> d          -2.101  -2.651   0.008  0.00  0.00     0.086 H 
ATOM      9  H4  <0> d           2.176  -2.592  -0.032  0.00  0.00     0.086 H 
ATOM     10  H5  <0> d           2.146  -0.133  -0.018  0.00  0.00     0.084 H 
ENDROOT
BRANCH   6  11
ATOM     11  C7  <0> d          -0.018   1.481   0.010  0.00  0.00     0.010 A 
ATOM     12  C9  <0> d           1.107   2.328   0.004  0.00  0.00     0.034 A 
ATOM     13  N2  <0> d           0.684   3.565   0.015  0.00  0.00    -0.187 NA
ATOM     14  H7  <0> d           2.139   2.011  -0.008  0.00  0.00     0.118 H 
ATOM     15  N1  <0> d          -0.716   3.556   0.028  0.00  0.00    -0.289 N 
ATOM     16  C8  <0> d          -1.129   2.272   0.019  0.00  0.00     0.008 A 
ATOM     17  H1  <0> d          -1.455   4.371   0.043  0.00  0.00     0.188 HD
ATOM     18  H6  <0> d          -2.154   1.931   0.021  0.00  0.00     0.115 H 
ENDBRANCH   6  11
BRANCH   3  19
ATOM     19  N3  <0> d           0.059  -4.171  -0.021  0.00  0.00    -0.399 N 
ATOM     20  H8  <0> d           1.019  -4.708  -0.033  0.00  0.00     0.156 HD
ATOM     21  H9  <0> d          -0.886  -4.734  -0.015  0.00  0.00     0.156 HD
ENDBRANCH   3  19
TORSDOF 2
