REMARK  5 active torsions:
REMARK  status: ('A' for Active; 'I' for Inactive)
REMARK    1  A    between atoms: C1_1  and  C2_2 
REMARK    2  A    between atoms: C3_3  and  C4_4 
REMARK    3  A    between atoms: C4_4  and  C5_5 
REMARK       I    between atoms: C5_5  and  N1_7 
REMARK    4  A    between atoms: N1_7  and  C6_8 
REMARK    5  A    between atoms: C6_8  and  C7_9 
REMARK       I    between atoms: C7_9  and  N2_11 
ROOT
ATOM      1  C5  <0> d          -1.302   0.565   4.549  0.00  0.00     0.221 C 
ATOM      2  O1  <0> d          -1.001  -0.558   4.202  0.00  0.00    -0.273 OA
ATOM      3  N1  <0> d          -1.940   0.760   5.720  0.00  0.00    -0.352 N 
ATOM      4  H8  <0> d          -2.180   1.658   5.997  0.00  0.00     0.162 HD
ENDROOT
BRANCH   1   5
ATOM      5  C4  <0> d          -0.960   1.741   3.671  0.00  0.00     0.024 C 
ATOM      6  H6  <0> d          -0.308   2.424   4.216  0.00  0.00     0.053 H 
ATOM      7  H7  <0> d          -1.876   2.261   3.389  0.00  0.00     0.053 H 
BRANCH   5   8
ATOM      8  C3  <0> d          -0.255   1.255   2.432  0.00  0.00    -0.099 C 
ATOM      9  C2  <0> d          -0.718   1.572   1.248  0.00  0.00    -0.110 C 
ATOM     10  H4  <0> d          -1.605   2.181   1.161  0.00  0.00     0.075 H 
ATOM     11  H5  <0> d           0.632   0.646   2.519  0.00  0.00     0.077 H 
BRANCH   9  12
ATOM     12  C1  <0> d          -0.013   1.086   0.008  0.00  0.00    -0.060 C 
ATOM     13  H1  <0> d           0.002  -0.004   0.002  0.00  0.00     0.032 H 
ATOM     14  H2  <0> d           1.010   1.463   0.000  0.00  0.00     0.032 H 
ATOM     15  H3  <0> d          -0.540   1.447  -0.875  0.00  0.00     0.032 H 
ENDBRANCH   9  12
ENDBRANCH   5   8
ENDBRANCH   1   5
BRANCH   3  16
ATOM     16  C6  <0> d          -2.272  -0.384   6.573  0.00  0.00     0.068 C 
ATOM     17  H9  <0> d          -2.924  -1.067   6.028  0.00  0.00     0.078 H 
ATOM     18  H10 <0> d          -1.356  -0.904   6.856  0.00  0.00     0.078 H 
BRANCH  16  19
ATOM     19  C7  <0> d          -2.977   0.102   7.813  0.00  0.00     0.233 C 
ATOM     20  O2  <0> d          -3.183   1.287   7.969  0.00  0.00    -0.272 OA
ATOM     21  N2  <0> d          -3.380  -0.780   8.749  0.00  0.00    -0.369 N 
ATOM     22  H11 <0> d          -3.215  -1.728   8.624  0.00  0.00     0.159 HD
ATOM     23  H12 <0> d          -3.834  -0.468   9.547  0.00  0.00     0.159 HD
ENDBRANCH  16  19
ENDBRANCH   3  16
TORSDOF 5
