REMARK  1 active torsions:
REMARK  status: ('A' for Active; 'I' for Inactive)
REMARK    1  A    between atoms: C1_1  and  C2_2 
ROOT
ATOM      1  C2  <0> d           0.023  -0.717   1.199  0.00  0.00     0.033 A 
ATOM      2  C3  <0> d           0.002  -0.004   0.002  0.00  0.00     0.191 A 
ATOM      3  N1  <0> d          -0.005  -0.671  -1.146  0.00  0.00    -0.296 N 
ATOM      4  C4  <0> d           0.017  -1.994  -1.159  0.00  0.00     0.281 A 
ATOM      5  N2  <0> d           0.037  -2.699  -0.040  0.00  0.00    -0.194 NA
ATOM      6  C5  <0> d           0.041  -2.099   1.143  0.00  0.00     0.140 A 
ATOM      7 Cl1  <0> d           0.068  -3.038   2.603  0.00  0.00    -0.062 Cl
ATOM      8  O1  <0> d           0.014  -2.643  -2.348  0.00  0.00    -0.149 OA
ATOM      9  O2  <0> d          -0.016   1.351   0.009  0.00  0.00    -0.171 OA
ATOM     10  H4  <0> d          -0.030  -0.113  -2.093  0.00  0.00     0.171 HD
ENDROOT
BRANCH   1  11
ATOM     11  C1  <0> d           0.026   0.001   2.524  0.00  0.00    -0.044 C 
ATOM     12  H1  <0> d           0.044  -0.736   3.340  0.00  0.00     0.033 H 
ATOM     13  H2  <0> d          -0.879   0.620   2.608  0.00  0.00     0.033 H 
ATOM     14  H3  <0> d           0.917   0.643   2.591  0.00  0.00     0.033 H 
ENDBRANCH   1  11
TORSDOF 1
