REMARK  0 active torsions:
REMARK  status: ('A' for Active; 'I' for Inactive)
ROOT
ATOM      1  C1  <0> d           1.184   1.781   0.000  0.00  0.00    -0.081 A 
ATOM      2  C2  <0> d          -0.013   1.076   0.008  0.00  0.00    -0.081 A 
ATOM      3  C3  <0> d          -1.209   1.737   0.017  0.00  0.00    -0.052 A 
ATOM      4  C4  <0> d          -1.230   3.127   0.030  0.00  0.00     0.103 A 
ATOM      5  C5  <0> d          -0.022   3.847   0.022  0.00  0.00     0.110 A 
ATOM      6  C6  <0> d           1.191   3.145   0.007  0.00  0.00    -0.051 A 
ATOM      7  N1  <0> d          -0.328   5.160   0.032  0.00  0.00    -0.129 NA
ATOM      8  N2  <0> d          -1.604   5.321   0.044  0.00  0.00    -0.049 NA
ATOM      9  N3  <0> d          -2.233   4.067   0.044  0.00  0.00    -0.152 N 
ATOM     10 Cl1  <0> d          -3.916   3.767   0.058  0.00  0.00     0.039 Cl
ATOM     11  H1  <0> d           2.121   1.242  -0.011  0.00  0.00     0.083 H 
ATOM     12  H2  <0> d           0.002  -0.004   0.002  0.00  0.00     0.083 H 
ATOM     13  H3  <0> d          -2.135   1.181   0.019  0.00  0.00     0.087 H 
ATOM     14  H4  <0> d           2.127   3.682   0.001  0.00  0.00     0.087 H 
ENDROOT
TORSDOF 0
