REMARK  1 active torsions:
REMARK  status: ('A' for Active; 'I' for Inactive)
REMARK    1  A    between atoms: C4_6  and  N3_7 
ROOT
ATOM      1  C1  <0> d           1.210   2.059   0.002  0.00  0.00    -0.038 A 
ATOM      2  C2  <0> d           2.362   1.295  -0.013  0.00  0.00     0.026 A 
ATOM      3  N1  <0> d           2.279  -0.023  -0.020  0.00  0.00    -0.163 NA
ATOM      4  N2  <0> d           1.155  -0.641  -0.012  0.00  0.00    -0.161 NA
ATOM      5  C3  <0> d           0.002  -0.004   0.002  0.00  0.00     0.049 A 
ATOM      6  C4  <0> d          -0.017   1.390   0.010  0.00  0.00     0.046 A 
ATOM      7  H1  <0> d           1.256   3.138   0.007  0.00  0.00     0.089 H 
ATOM      8  H2  <0> d           3.329   1.775  -0.020  0.00  0.00     0.117 H 
ATOM      9  H3  <0> d          -0.924  -0.559   0.007  0.00  0.00     0.121 H 
ENDROOT
BRANCH   6  10
ATOM     10  N3  <0> d          -1.218   2.093   0.019  0.00  0.00    -0.398 N 
ATOM     11  H4  <0> d          -2.061   1.613   0.021  0.00  0.00     0.156 HD
ATOM     12  H5  <0> d          -1.213   3.063   0.025  0.00  0.00     0.156 HD
ENDBRANCH   6  10
TORSDOF 1
