REMARK  2 active torsions:
REMARK  status: ('A' for Active; 'I' for Inactive)
REMARK    1  A    between atoms: C2_2  and  N3_8 
REMARK    2  A    between atoms: C5_6  and  N2_7 
ROOT
ATOM      1  C1  <0> d          -0.013   1.076   0.008  0.00  0.00    -0.030 A 
ATOM      2  C2  <0> d          -1.217   1.773   0.017  0.00  0.00     0.045 A 
ATOM      3  C3  <0> d          -1.193   3.163   0.029  0.00  0.00     0.027 A 
ATOM      4  N1  <0> d          -0.050   3.818   0.022  0.00  0.00    -0.269 NA
ATOM      5  C4  <0> d           1.111   3.194   0.008  0.00  0.00     0.027 A 
ATOM      6  C5  <0> d           1.172   1.806   0.001  0.00  0.00     0.045 A 
ATOM      7  H1  <0> d           0.002  -0.004   0.002  0.00  0.00     0.090 H 
ATOM      8  H2  <0> d          -2.123   3.712   0.040  0.00  0.00     0.118 H 
ATOM      9  H3  <0> d           2.025   3.768   0.003  0.00  0.00     0.118 H 
ENDROOT
BRANCH   2  10
ATOM     10  N3  <0> d          -2.433   1.086   0.019  0.00  0.00    -0.398 N 
ATOM     11  H6  <0> d          -2.442   0.116   0.014  0.00  0.00     0.156 HD
ATOM     12  H7  <0> d          -3.268   1.578   0.026  0.00  0.00     0.156 HD
ENDBRANCH   2  10
BRANCH   6  13
ATOM     13  N2  <0> d           2.407   1.151  -0.015  0.00  0.00    -0.398 N 
ATOM     14  H4  <0> d           2.442   0.182  -0.020  0.00  0.00     0.156 HD
ATOM     15  H5  <0> d           3.228   1.667  -0.020  0.00  0.00     0.156 HD
ENDBRANCH   6  13
TORSDOF 2
