REMARK  2 active torsions:
REMARK  status: ('A' for Active; 'I' for Inactive)
REMARK    1  A    between atoms: C1_1  and  C2_2 
REMARK    2  A    between atoms: C2_2  and  C9_12 
ROOT
ATOM      1  C2  <0> d          -1.240   2.792   0.012  0.00  0.00    -0.034 C 
ATOM      2  C3  <0> d          -0.978   1.696  -1.029  0.00  0.00    -0.046 C 
ATOM      3  H1  <0> d          -0.489   2.046  -1.942  0.00  0.00     0.041 H 
ATOM      4  C4  <0> d          -2.168   0.771  -1.294  0.00  0.00    -0.055 C 
ATOM      5  C5  <0> d          -2.518  -0.037  -0.038  0.00  0.00    -0.009 C 
ATOM      6  C6  <0> d          -2.216   0.819   1.181  0.00  0.00     0.131 C 
ATOM      7  O1  <0> d          -2.909   0.808   2.173  0.00  0.00    -0.298 OA
ATOM      8  C7  <0> d          -0.965   1.688   1.062  0.00  0.00     0.011 C 
ATOM      9  H2  <0> d          -0.671   2.110   1.919  0.00  0.00     0.052 H 
ATOM     10  C8  <0> d          -0.013   1.088   0.008  0.00  0.00    -0.051 C 
ATOM     11  H6  <0> d          -3.033   1.337  -1.631  0.00  0.00     0.034 H 
ATOM     12  H7  <0> d          -1.894   0.070  -2.094  0.00  0.00     0.034 H 
ATOM     13  H8  <0> d          -3.488  -0.277  -0.056  0.00  0.00     0.044 H 
ATOM     14  H9  <0> d          -1.923  -0.952  -0.007  0.00  0.00     0.044 H 
ATOM     15  H10 <0> d           0.002  -0.004   0.002  0.00  0.00     0.034 H 
ATOM     16  H11 <0> d           0.986   1.517   0.001  0.00  0.00     0.034 H 
ENDROOT
BRANCH   1  17
ATOM     17  C1  <0> d          -0.199   3.916   0.009  0.00  0.00    -0.068 C 
ATOM     18  H3  <0> d          -0.186   4.397  -0.969  0.00  0.00     0.028 H 
ATOM     19  H4  <0> d          -0.455   4.651   0.772  0.00  0.00     0.028 H 
ATOM     20  H5  <0> d           0.786   3.500   0.221  0.00  0.00     0.028 H 
ENDBRANCH   1  17
BRANCH   1  21
ATOM     21  C9  <0> d          -2.672   3.330   0.036  0.00  0.00    -0.068 C 
ATOM     22  H12 <0> d          -3.362   2.517   0.259  0.00  0.00     0.028 H 
ATOM     23  H13 <0> d          -2.758   4.100   0.803  0.00  0.00     0.028 H 
ATOM     24  H14 <0> d          -2.916   3.758  -0.936  0.00  0.00     0.028 H 
ENDBRANCH   1  21
TORSDOF 2
