REMARK  3 active torsions:
REMARK  status: ('A' for Active; 'I' for Inactive)
REMARK    1  A    between atoms: C1_1  and  C2_2 
REMARK    2  A    between atoms: C2_2  and  O2_4 
REMARK    3  A    between atoms: O2_4  and  C3_5 
ROOT
ATOM      1  C3  <0> d           0.091  -0.184   0.082  0.00  0.00     0.146 A 
ATOM      2  C4  <0> d           0.274   1.170   0.111  0.00  0.00    -0.043 A 
ATOM      3  C5  <0> d           1.577   1.684   0.186  0.00  0.00    -0.065 A 
ATOM      4  C6  <0> d           2.635   0.843   0.230  0.00  0.00    -0.020 A 
ATOM      5  N1  <0> d           2.454  -0.504   0.201  0.00  0.00    -0.331 N 
ATOM      6  H1  <0> d           3.225  -1.092   0.234  0.00  0.00     0.168 HD
ATOM      7  C7  <0> d           1.218  -1.032   0.129  0.00  0.00     0.279 A 
ATOM      8  O3  <0> d           1.071  -2.244   0.105  0.00  0.00    -0.265 OA
ATOM      9  H5  <0> d          -0.575   1.837   0.071  0.00  0.00     0.088 H 
ATOM     10  H6  <0> d           1.735   2.752   0.209  0.00  0.00     0.085 H 
ATOM     11  H7  <0> d           3.635   1.246   0.287  0.00  0.00     0.111 H 
ENDROOT
BRANCH   1  12
ATOM     12  O2  <0> d          -1.162  -0.708   0.009  0.00  0.00    -0.273 OA
BRANCH  12  13
ATOM     13  C2  <0> d          -1.482  -1.367  -1.115  0.00  0.00     0.260 C 
ATOM     14  O1  <0> d          -0.704  -1.393  -2.045  0.00  0.00    -0.265 OA
BRANCH  13  15
ATOM     15  C1  <0> d          -2.808  -2.076  -1.222  0.00  0.00     0.004 C 
ATOM     16  H2  <0> d          -3.553  -1.392  -1.628  0.00  0.00     0.041 H 
ATOM     17  H3  <0> d          -2.707  -2.937  -1.883  0.00  0.00     0.041 H 
ATOM     18  H4  <0> d          -3.121  -2.410  -0.234  0.00  0.00     0.041 H 
ENDBRANCH  13  15
ENDBRANCH  12  13
ENDBRANCH   1  12
TORSDOF 3
