REMARK  0 active torsions:
REMARK  status: ('A' for Active; 'I' for Inactive)
ROOT
ATOM      1  C1  <0> d           1.208  -0.679  -0.013  0.00  0.00    -0.059 A 
ATOM      2  C2  <0> d           0.002  -0.004   0.002  0.00  0.00    -0.041 A 
ATOM      3  C3  <0> d          -0.017   1.379   0.010  0.00  0.00     0.154 A 
ATOM      4  C4  <0> d           1.175   2.088   0.002  0.00  0.00     0.156 A 
ATOM      5  C5  <0> d           2.382   1.411  -0.013  0.00  0.00    -0.022 A 
ATOM      6  C6  <0> d           2.398   0.027  -0.021  0.00  0.00     0.037 A 
ATOM      7 Cl1  <0> d           3.911  -0.823  -0.040  0.00  0.00    -0.084 Cl
ATOM      8  F1  <0> d           1.159   3.439   0.009  0.00  0.00    -0.203 F 
ATOM      9  F2  <0> d          -1.196   2.039   0.019  0.00  0.00    -0.203 F 
ATOM     10  H1  <0> d           1.222  -1.759  -0.019  0.00  0.00     0.086 H 
ATOM     11  H2  <0> d          -0.926  -0.557   0.008  0.00  0.00     0.088 H 
ATOM     12  H3  <0> d           3.311   1.962  -0.019  0.00  0.00     0.090 H 
ENDROOT
TORSDOF 0
