REMARK  1 active torsions:
REMARK  status: ('A' for Active; 'I' for Inactive)
REMARK    1  A    between atoms: C1_1  and  C2_2 
ROOT
ATOM      1  C2  <0> d           0.972  -2.084  -0.018  0.00  0.00     0.064 A 
ATOM      2  C3  <0> d           1.255  -0.654  -0.013  0.00  0.00     0.035 A 
ATOM      3  C4  <0> d           2.417   0.121  -0.020  0.00  0.00     0.016 A 
ATOM      4  N1  <0> d           2.331   1.434  -0.011  0.00  0.00    -0.272 NA
ATOM      5  C5  <0> d           1.169   2.068   0.002  0.00  0.00     0.004 A 
ATOM      6  C6  <0> d          -0.017   1.391   0.010  0.00  0.00    -0.038 A 
ATOM      7  C7  <0> d           0.002  -0.004   0.002  0.00  0.00     0.065 A 
ATOM      8  N2  <0> d          -0.950  -0.982   0.006  0.00  0.00    -0.277 N 
ATOM      9  H1  <0> d          -2.016  -0.711   0.018  0.00  0.00     0.189 HD
ATOM     10  N3  <0> d          -0.323  -2.233  -0.007  0.00  0.00    -0.178 NA
ATOM     11  H5  <0> d           3.385  -0.357  -0.031  0.00  0.00     0.116 H 
ATOM     12  H6  <0> d           1.159   3.148   0.008  0.00  0.00     0.114 H 
ATOM     13  H7  <0> d          -0.955   1.927   0.017  0.00  0.00     0.089 H 
ENDROOT
BRANCH   1  14
ATOM     14  C1  <0> d           1.993  -3.192  -0.033  0.00  0.00    -0.033 C 
ATOM     15  H2  <0> d           3.004  -2.759  -0.041  0.00  0.00     0.035 H 
ATOM     16  H3  <0> d           1.852  -3.809  -0.933  0.00  0.00     0.035 H 
ATOM     17  H4  <0> d           1.869  -3.818   0.863  0.00  0.00     0.035 H 
ENDBRANCH   1  14
TORSDOF 1
