REMARK  1 active torsions:
REMARK  status: ('A' for Active; 'I' for Inactive)
REMARK    1  A    between atoms: C6_7  and  O1_12 
ROOT
ATOM      1  C1  <0> d          -0.690   2.001  -3.572  0.00  0.00    -0.066 A 
ATOM      2  C2  <0> d          -0.045   1.556  -2.430  0.00  0.00    -0.073 A 
ATOM      3  C3  <0> d          -0.730   1.579  -1.219  0.00  0.00    -0.031 A 
ATOM      4  C4  <0> d          -2.025   2.047  -1.190  0.00  0.00     0.069 A 
ATOM      5  N1  <0> d          -2.608   2.461  -2.307  0.00  0.00    -0.262 NA
ATOM      6  C5  <0> d          -1.992   2.452  -3.469  0.00  0.00     0.003 A 
ATOM      7  C6  <0> d          -2.827   2.119   0.084  0.00  0.00     0.078 C 
ATOM      8  H1  <0> d          -2.847   3.150   0.438  0.00  0.00     0.092 H 
ATOM      9  C7  <0> d          -2.206   1.230   1.160  0.00  0.00    -0.035 C 
ATOM     10  C8  <0> d          -0.717   1.573   1.273  0.00  0.00    -0.059 C 
ATOM     11  C9  <0> d          -0.013   1.086   0.008  0.00  0.00    -0.039 C 
ATOM     12  H2  <0> d          -0.183   1.996  -4.526  0.00  0.00     0.085 H 
ATOM     13  H3  <0> d           0.972   1.196  -2.478  0.00  0.00     0.084 H 
ATOM     14  H4  <0> d          -2.508   2.800  -4.351  0.00  0.00     0.114 H 
ATOM     15  H5  <0> d          -2.698   1.413   2.115  0.00  0.00     0.037 H 
ATOM     16  H6  <0> d          -2.321   0.183   0.881  0.00  0.00     0.037 H 
ATOM     17  H7  <0> d          -0.292   1.076   2.145  0.00  0.00     0.033 H 
ATOM     18  H8  <0> d          -0.595   2.652   1.369  0.00  0.00     0.033 H 
ATOM     19  H9  <0> d           0.002  -0.004   0.002  0.00  0.00     0.040 H 
ATOM     20  H10 <0> d           1.011   1.459   0.000  0.00  0.00     0.040 H 
ENDROOT
BRANCH   7  21
ATOM     21  O1  <0> d          -4.163   1.683  -0.174  0.00  0.00    -0.389 OA
ATOM     22  H11 <0> d          -4.628   2.212  -0.837  0.00  0.00     0.210 HD
ENDBRANCH   7  21
TORSDOF 1
