REMARK  1 active torsions:
REMARK  status: ('A' for Active; 'I' for Inactive)
REMARK    1  A    between atoms: C1_1  and  N1_2 
ROOT
ATOM      1  N1  <0> d           1.140   2.055   0.002  0.00  0.00    -0.370 N 
ATOM      2  C2  <0> d          -0.016   1.347   0.009  0.00  0.00    -0.018 A 
ATOM      3  C3  <0> d           0.002  -0.004   0.002  0.00  0.00    -0.020 A 
ATOM      4  C4  <0> d           1.246  -0.678  -0.013  0.00  0.00     0.174 A 
ATOM      5  O1  <0> d           1.293  -1.900  -0.020  0.00  0.00    -0.288 OA
ATOM      6  C5  <0> d           2.434   0.090  -0.021  0.00  0.00    -0.020 A 
ATOM      7  C6  <0> d           2.348   1.438  -0.013  0.00  0.00    -0.018 A 
ATOM      8  H4  <0> d          -0.962   1.868   0.017  0.00  0.00     0.111 H 
ATOM      9  H5  <0> d          -0.922  -0.563   0.008  0.00  0.00     0.091 H 
ATOM     10  H6  <0> d           3.398  -0.396  -0.032  0.00  0.00     0.091 H 
ATOM     11  H7  <0> d           3.250   2.031  -0.018  0.00  0.00     0.111 H 
ENDROOT
BRANCH   1  12
ATOM     12  C1  <0> d           1.084   3.519   0.011  0.00  0.00    -0.015 C 
ATOM     13  H1  <0> d           1.079   3.876   1.040  0.00  0.00     0.057 H 
ATOM     14  H2  <0> d           1.954   3.919  -0.509  0.00  0.00     0.057 H 
ATOM     15  H3  <0> d           0.175   3.850  -0.493  0.00  0.00     0.057 H 
ENDBRANCH   1  12
TORSDOF 1
