REMARK  2 active torsions:
REMARK  status: ('A' for Active; 'I' for Inactive)
REMARK    1  A    between atoms: C4_4  and  O2_12 
REMARK    2  A    between atoms: C5_6  and  C7_9 
REMARK       I    between atoms: C7_9  and  N1_11 
ROOT
ATOM      1  C1  <0> d          -3.872  -0.804  -1.233  0.00  0.00    -0.064 C 
ATOM      2  C2  <0> d          -5.048   0.174  -1.222  0.00  0.00    -0.063 C 
ATOM      3  C3  <0> d          -4.973   1.048   0.031  0.00  0.00    -0.040 C 
ATOM      4  C4  <0> d          -3.658   1.831   0.029  0.00  0.00     0.047 C 
ATOM      5  H1  <0> d          -3.613   2.463  -0.857  0.00  0.00     0.084 H 
ATOM      6  C5  <0> d          -2.482   0.853   0.018  0.00  0.00     0.048 C 
ATOM      7  H2  <0> d          -2.527   0.220   0.905  0.00  0.00     0.058 H 
ATOM      8  C6  <0> d          -2.557  -0.021  -1.235  0.00  0.00    -0.051 C 
ATOM      9  H3  <0> d          -3.925  -1.427  -2.126  0.00  0.00     0.033 H 
ATOM     10  H4  <0> d          -3.917  -1.436  -0.346  0.00  0.00     0.033 H 
ATOM     11  H5  <0> d          -5.003   0.806  -2.109  0.00  0.00     0.033 H 
ATOM     12  H6  <0> d          -5.984  -0.384  -1.221  0.00  0.00     0.033 H 
ATOM     13  H7  <0> d          -5.811   1.745   0.039  0.00  0.00     0.036 H 
ATOM     14  H8  <0> d          -5.018   0.416   0.918  0.00  0.00     0.036 H 
ATOM     15  H9  <0> d          -2.512   0.611  -2.122  0.00  0.00     0.034 H 
ATOM     16  H10 <0> d          -1.719  -0.718  -1.243  0.00  0.00     0.034 H 
ENDROOT
BRANCH   6  17
ATOM     17  C7  <0> d          -1.187   1.624   0.017  0.00  0.00     0.222 C 
ATOM     18  O1  <0> d          -1.204   2.837   0.023  0.00  0.00    -0.273 OA
ATOM     19  N1  <0> d          -0.011   0.966   0.007  0.00  0.00    -0.370 N 
ATOM     20  H11 <0> d           0.002  -0.004   0.002  0.00  0.00     0.159 HD
ATOM     21  H12 <0> d           0.822   1.462   0.002  0.00  0.00     0.159 HD
ENDBRANCH   6  17
BRANCH   4  22
ATOM     22  O2  <0> d          -3.588   2.647   1.200  0.00  0.00    -0.395 OA
ATOM     23  H13 <0> d          -4.305   3.292   1.273  0.00  0.00     0.210 HD
ENDBRANCH   4  22
TORSDOF 2
