REMARK  4 active torsions:
REMARK  status: ('A' for Active; 'I' for Inactive)
REMARK    1  A    between atoms: C1_1  and  C2_2 
REMARK    2  A    between atoms: C4_7  and  C5_8 
REMARK    3  A    between atoms: C5_8  and  C6_9 
REMARK    4  A    between atoms: C5_8  and  C7_10 
ROOT
ATOM      1  C2  <0> d           1.337  -0.423  -0.013  0.00  0.00    -0.018 A 
ATOM      2  C3  <0> d           0.002  -0.004   0.002  0.00  0.00     0.029 A 
ATOM      3  N1  <0> d          -0.016   1.304   0.009  0.00  0.00    -0.186 NA
ATOM      4  N2  <0> d           1.309   1.760  -0.001  0.00  0.00    -0.282 N 
ATOM      5  H1  <0> d           1.602   2.716   0.001  0.00  0.00     0.189 HD
ATOM      6  C4  <0> d           2.119   0.681  -0.015  0.00  0.00     0.038 A 
ATOM      7  H5  <0> d          -0.864  -0.649   0.006  0.00  0.00     0.118 H 
ENDROOT
BRANCH   6   8
ATOM      8  C5  <0> d           3.626   0.702  -0.030  0.00  0.00    -0.019 C 
ATOM      9  H6  <0> d           4.003  -0.321  -0.040  0.00  0.00     0.048 H 
BRANCH   8  10
ATOM     10  C6  <0> d           4.113   1.437  -1.280  0.00  0.00    -0.068 C 
ATOM     11  H7  <0> d           3.736   2.459  -1.270  0.00  0.00     0.028 H 
ATOM     12  H8  <0> d           5.203   1.452  -1.291  0.00  0.00     0.028 H 
ATOM     13  H9  <0> d           3.748   0.923  -2.169  0.00  0.00     0.028 H 
ENDBRANCH   8  10
BRANCH   8  14
ATOM     14  C7  <0> d           4.139   1.422   1.218  0.00  0.00    -0.068 C 
ATOM     15  H10 <0> d           3.792   0.898   2.109  0.00  0.00     0.028 H 
ATOM     16  H11 <0> d           5.229   1.437   1.208  0.00  0.00     0.028 H 
ATOM     17  H12 <0> d           3.762   2.445   1.228  0.00  0.00     0.028 H 
ENDBRANCH   8  14
ENDBRANCH   6   8
BRANCH   1  18
ATOM     18  C1  <0> d           1.817  -1.851  -0.026  0.00  0.00    -0.048 C 
ATOM     19  H2  <0> d           1.923  -2.190  -1.056  0.00  0.00     0.033 H 
ATOM     20  H3  <0> d           2.782  -1.914   0.478  0.00  0.00     0.033 H 
ATOM     21  H4  <0> d           1.095  -2.482   0.492  0.00  0.00     0.033 H 
ENDBRANCH   1  18
TORSDOF 4
