REMARK  2 active torsions:
REMARK  status: ('A' for Active; 'I' for Inactive)
REMARK    1  A    between atoms: C1_1  and  C2_2 
REMARK    2  A    between atoms: C4_7  and  C6_12 
ROOT
ATOM      1  C2  <0> d           0.002  -0.004   0.002  0.00  0.00     0.128 C 
ATOM      2  H1  <0> d           0.511  -0.360  -0.893  0.00  0.00     0.099 H 
ATOM      3  C3  <0> d          -1.415  -0.535   0.030  0.00  0.00     0.289 C 
ATOM      4  O1  <0> d          -1.907  -1.048  -0.947  0.00  0.00    -0.262 OA
ATOM      5  O2  <0> d          -2.113  -0.418   1.181  0.00  0.00    -0.304 OA
ATOM      6  C4  <0> d          -1.434  -0.901   2.352  0.00  0.00     0.128 C 
ATOM      7  H2  <0> d          -1.944  -0.543   3.246  0.00  0.00     0.099 H 
ATOM      8  C5  <0> d          -0.017  -0.370   2.324  0.00  0.00     0.289 C 
ATOM      9  O3  <0> d           0.475   0.142   3.301  0.00  0.00    -0.262 OA
ATOM     10  O4  <0> d           0.682  -0.487   1.172  0.00  0.00    -0.304 OA
ENDROOT
BRANCH   1  11
ATOM     11  C1  <0> d          -0.019   1.526   0.010  0.00  0.00    -0.043 C 
ATOM     12  H3  <0> d           1.004   1.903   0.003  0.00  0.00     0.031 H 
ATOM     13  H4  <0> d          -0.546   1.887  -0.873  0.00  0.00     0.031 H 
ATOM     14  H5  <0> d          -0.529   1.877   0.907  0.00  0.00     0.031 H 
ENDBRANCH   1  11
BRANCH   6  15
ATOM     15  C6  <0> d          -1.415  -2.430   2.344  0.00  0.00    -0.043 C 
ATOM     16  H6  <0> d          -0.893  -2.783   1.454  0.00  0.00     0.031 H 
ATOM     17  H7  <0> d          -0.899  -2.792   3.233  0.00  0.00     0.031 H 
ATOM     18  H8  <0> d          -2.438  -2.807   2.339  0.00  0.00     0.031 H 
ENDBRANCH   6  15
TORSDOF 2
