REMARK  4 active torsions:
REMARK  status: ('A' for Active; 'I' for Inactive)
REMARK    1  A    between atoms: C1_1  and  O1_2 
REMARK    2  A    between atoms: O1_2  and  C2_3 
REMARK    3  A    between atoms: C4_6  and  C7_10 
REMARK    4  A    between atoms: C7_10  and  O4_11 
ROOT
ATOM      1  C2  <0> d           0.892   5.793  -0.073  0.00  0.00     0.140 A 
ATOM      2  C3  <0> d           0.950   5.058  -1.205  0.00  0.00     0.055 A 
ATOM      3  O2  <0> d           1.075   3.724  -1.153  0.00  0.00    -0.322 OA
ATOM      4  C4  <0> d           1.147   3.062   0.008  0.00  0.00     0.080 A 
ATOM      5  C5  <0> d           1.091   3.716   1.185  0.00  0.00    -0.001 A 
ATOM      6  C6  <0> d           0.965   5.128   1.183  0.00  0.00     0.209 A 
ATOM      7  O3  <0> d           0.915   5.756   2.229  0.00  0.00    -0.285 OA
ATOM      8  H4  <0> d           0.895   5.551  -2.164  0.00  0.00     0.128 H 
ATOM      9  H5  <0> d           1.146   3.173   2.117  0.00  0.00     0.093 H 
ENDROOT
BRANCH   1  10
ATOM     10  O1  <0> d           0.765   7.146  -0.132  0.00  0.00    -0.350 OA
BRANCH  10  11
ATOM     11  C1  <0> d           0.699   7.735  -1.433  0.00  0.00     0.011 C 
ATOM     12  H1  <0> d           1.610   7.501  -1.984  0.00  0.00     0.067 H 
ATOM     13  H2  <0> d          -0.162   7.336  -1.969  0.00  0.00     0.067 H 
ATOM     14  H3  <0> d           0.600   8.816  -1.338  0.00  0.00     0.067 H 
ENDBRANCH  10  11
ENDBRANCH   1  10
BRANCH   4  15
ATOM     15  C7  <0> d           1.286   1.562  -0.002  0.00  0.00     0.061 C 
ATOM     16  H6  <0> d           1.840   1.243   0.881  0.00  0.00     0.084 H 
ATOM     17  H7  <0> d           1.823   1.252  -0.899  0.00  0.00     0.084 H 
BRANCH  15  18
ATOM     18  O4  <0> d          -0.011   0.963   0.007  0.00  0.00    -0.394 OA
ATOM     19  H8  <0> d           0.002  -0.004   0.002  0.00  0.00     0.209 HD
ENDBRANCH  15  18
ENDBRANCH   4  15
TORSDOF 4
