REMARK  5 active torsions:
REMARK  status: ('A' for Active; 'I' for Inactive)
REMARK    1  A    between atoms: C1_1  and  C2_2 
REMARK    2  A    between atoms: C2_2  and  C3_3 
REMARK    3  A    between atoms: C4_4  and  C7_10 
REMARK    4  A    between atoms: C5_5  and  C6_8 
REMARK    5  A    between atoms: C6_8  and  O2_9 
ROOT
ATOM      1  C3  <0> d           0.731  -0.503   1.223  0.00  0.00     0.086 A 
ATOM      2  C4  <0> d           0.175  -0.786   2.416  0.00  0.00    -0.001 A 
ATOM      3  C5  <0> d           1.194  -1.222   3.282  0.00  0.00     0.093 A 
ATOM      4  N1  <0> d           2.319  -1.199   2.625  0.00  0.00    -0.130 NA
ATOM      5  O1  <0> d           2.047  -0.749   1.310  0.00  0.00    -0.217 OA
ENDROOT
BRANCH   1   6
ATOM      6  C2  <0> d           0.002  -0.004   0.002  0.00  0.00    -0.021 C 
ATOM      7  H4  <0> d          -1.020  -0.381   0.010  0.00  0.00     0.042 H 
ATOM      8  H5  <0> d           0.512  -0.356  -0.895  0.00  0.00     0.042 H 
BRANCH   6   9
ATOM      9  C1  <0> d          -0.019   1.526   0.010  0.00  0.00    -0.071 C 
ATOM     10  H1  <0> d           1.004   1.903   0.003  0.00  0.00     0.028 H 
ATOM     11  H2  <0> d          -0.546   1.887  -0.873  0.00  0.00     0.028 H 
ATOM     12  H3  <0> d          -0.529   1.877   0.907  0.00  0.00     0.028 H 
ENDBRANCH   6   9
ENDBRANCH   1   6
BRANCH   2  13
ATOM     13  C7  <0> d          -1.286  -0.658   2.764  0.00  0.00    -0.047 C 
ATOM     14  H9  <0> d          -1.796  -1.597   2.545  0.00  0.00     0.033 H 
ATOM     15  H10 <0> d          -1.388  -0.429   3.825  0.00  0.00     0.033 H 
ATOM     16  H11 <0> d          -1.731   0.143   2.174  0.00  0.00     0.033 H 
ENDBRANCH   2  13
BRANCH   3  17
ATOM     17  C6  <0> d           1.016  -1.642   4.718  0.00  0.00     0.059 C 
ATOM     18  H6  <0> d           1.925  -1.419   5.277  0.00  0.00     0.083 H 
ATOM     19  H7  <0> d           0.179  -1.098   5.155  0.00  0.00     0.083 H 
BRANCH  17  20
ATOM     20  O2  <0> d           0.754  -3.046   4.775  0.00  0.00    -0.395 OA
ATOM     21  H8  <0> d           0.628  -3.386   5.672  0.00  0.00     0.209 HD
ENDBRANCH  17  20
ENDBRANCH   3  17
TORSDOF 5
