REMARK  5 active torsions:
REMARK  status: ('A' for Active; 'I' for Inactive)
REMARK    1  A    between atoms: C1_1  and  O1_2 
REMARK    2  A    between atoms: O1_2  and  C2_3 
REMARK    3  A    between atoms: C2_3  and  C3_5 
REMARK    4  A    between atoms: C6_8  and  C7_10 
REMARK    5  A    between atoms: C7_10  and  O4_11 
ROOT
ATOM      1  C3  <0> d           0.949   5.133  -0.691  0.00  0.00     0.150 A 
ATOM      2  C4  <0> d           0.958   5.167   0.675  0.00  0.00    -0.042 A 
ATOM      3  C5  <0> d           1.085   3.840   1.111  0.00  0.00    -0.049 A 
ATOM      4  C6  <0> d           1.147   3.062   0.008  0.00  0.00     0.077 A 
ATOM      5  O3  <0> d           1.070   3.845  -1.076  0.00  0.00    -0.307 OA
ATOM      6  H4  <0> d           0.882   6.046   1.298  0.00  0.00     0.088 H 
ATOM      7  H5  <0> d           1.125   3.503   2.137  0.00  0.00     0.087 H 
ENDROOT
BRANCH   1   8
ATOM      8  C2  <0> d           0.834   6.290  -1.581  0.00  0.00     0.316 C 
ATOM      9  O2  <0> d           0.734   7.409  -1.114  0.00  0.00    -0.257 OA
BRANCH   8  10
ATOM     10  O1  <0> d           0.838   6.116  -2.919  0.00  0.00    -0.321 OA
BRANCH  10  11
ATOM     11  C1  <0> d           0.720   7.308  -3.739  0.00  0.00     0.013 C 
ATOM     12  H1  <0> d          -0.219   7.813  -3.513  0.00  0.00     0.067 H 
ATOM     13  H2  <0> d           1.553   7.978  -3.529  0.00  0.00     0.067 H 
ATOM     14  H3  <0> d           0.737   7.027  -4.793  0.00  0.00     0.067 H 
ENDBRANCH  10  11
ENDBRANCH   8  10
ENDBRANCH   1   8
BRANCH   4  15
ATOM     15  C7  <0> d           1.286   1.562  -0.002  0.00  0.00     0.061 C 
ATOM     16  H6  <0> d           1.840   1.243   0.881  0.00  0.00     0.084 H 
ATOM     17  H7  <0> d           1.823   1.252  -0.899  0.00  0.00     0.084 H 
BRANCH  15  18
ATOM     18  O4  <0> d          -0.011   0.963   0.007  0.00  0.00    -0.394 OA
ATOM     19  H8  <0> d           0.002  -0.004   0.002  0.00  0.00     0.209 HD
ENDBRANCH  15  18
ENDBRANCH   4  15
TORSDOF 5
