REMARK  2 active torsions:
REMARK  status: ('A' for Active; 'I' for Inactive)
REMARK    1  A    between atoms: C1_1  and  C2_2 
REMARK    2  A    between atoms: C3_4  and  N4_8 
ROOT
ATOM      1  C2  <0> d           0.002  -0.004   0.002  0.00  0.00     0.146 A 
ATOM      2  N1  <0> d           1.143  -0.668  -0.012  0.00  0.00    -0.213 NA
ATOM      3  C3  <0> d           2.291   0.006  -0.019  0.00  0.00     0.142 A 
ATOM      4  C4  <0> d           2.245   1.403  -0.012  0.00  0.00     0.067 A 
ATOM      5  N2  <0> d           1.071   2.004   0.003  0.00  0.00    -0.157 NA
ATOM      6  N3  <0> d          -0.016   1.315   0.009  0.00  0.00    -0.135 NA
ATOM      7  H4  <0> d           3.157   1.982  -0.018  0.00  0.00     0.123 H 
ENDROOT
BRANCH   1   8
ATOM      8  C1  <0> d          -1.299  -0.764   0.010  0.00  0.00    -0.018 C 
ATOM      9  H1  <0> d          -1.093  -1.845   0.003  0.00  0.00     0.038 H 
ATOM     10  H2  <0> d          -1.886  -0.496  -0.881  0.00  0.00     0.038 H 
ATOM     11  H3  <0> d          -1.869  -0.506   0.915  0.00  0.00     0.038 H 
ENDBRANCH   1   8
BRANCH   3  12
ATOM     12  N4  <0> d           3.504  -0.663  -0.035  0.00  0.00    -0.383 N 
ATOM     13  H5  <0> d           4.446  -0.094  -0.040  0.00  0.00     0.157 HD
ATOM     14  H6  <0> d           3.526  -1.763  -0.041  0.00  0.00     0.157 HD
ENDBRANCH   3  12
TORSDOF 2
