REMARK  2 active torsions:
REMARK  status: ('A' for Active; 'I' for Inactive)
REMARK    1  A    between atoms: C1_1  and  O1_2 
REMARK    2  A    between atoms: O1_2  and  C2_3 
ROOT
ATOM      1  C2  <0> d           1.105   3.077   0.008  0.00  0.00     0.181 A 
ATOM      2  C3  <0> d          -0.111   3.752   0.022  0.00  0.00     0.053 A 
ATOM      3  N1  <0> d          -1.241   3.072   0.029  0.00  0.00    -0.267 NA
ATOM      4  C4  <0> d          -1.219   1.750   0.017  0.00  0.00     0.019 A 
ATOM      5  C5  <0> d          -0.013   1.076   0.008  0.00  0.00     0.022 A 
ATOM      6  N2  <0> d           1.124   1.752   0.001  0.00  0.00    -0.234 NA
ATOM      7  H4  <0> d          -0.129   4.832   0.028  0.00  0.00     0.121 H 
ATOM      8  H5  <0> d          -2.146   1.195   0.019  0.00  0.00     0.117 H 
ATOM      9  H6  <0> d           0.002  -0.004   0.002  0.00  0.00     0.117 H 
ENDROOT
BRANCH   1  10
ATOM     10  O1  <0> d           2.270   3.773   0.001  0.00  0.00    -0.338 OA
BRANCH  10  11
ATOM     11  C1  <0> d           3.480   3.013  -0.014  0.00  0.00     0.012 C 
ATOM     12  H1  <0> d           4.334   3.690  -0.018  0.00  0.00     0.067 H 
ATOM     13  H2  <0> d           3.522   2.380   0.872  0.00  0.00     0.067 H 
ATOM     14  H3  <0> d           3.507   2.389  -0.907  0.00  0.00     0.067 H 
ENDBRANCH  10  11
ENDBRANCH   1  10
TORSDOF 2
