REMARK  7 active torsions:
REMARK  status: ('A' for Active; 'I' for Inactive)
REMARK    1  A    between atoms: C1_1  and  C2_2 
REMARK    2  A    between atoms: C2_2  and  C3_3 
REMARK    3  A    between atoms: C3_3  and  C4_4 
REMARK    4  A    between atoms: C3_3  and  C6_6 
REMARK    5  A    between atoms: C3_3  and  C8_8 
REMARK    6  A    between atoms: C4_4  and  C5_5 
REMARK    7  A    between atoms: C6_6  and  C7_7 
ROOT
ATOM      1  C3  <0> d          -1.331   2.074   0.020  0.00  0.00     0.047 C 
ENDROOT
BRANCH   1   2
ATOM      2  C2  <0> d          -1.072   3.582   0.027  0.00  0.00    -0.052 C 
ATOM      3  H4  <0> d          -0.500   3.848   0.915  0.00  0.00     0.034 H 
ATOM      4  H5  <0> d          -0.508   3.857  -0.865  0.00  0.00     0.034 H 
BRANCH   2   5
ATOM      5  C1  <0> d          -2.407   4.329   0.037  0.00  0.00    -0.075 C 
ATOM      6  H1  <0> d          -2.223   5.403   0.042  0.00  0.00     0.027 H 
ATOM      7  H2  <0> d          -2.980   4.062  -0.852  0.00  0.00     0.027 H 
ATOM      8  H3  <0> d          -2.971   4.053   0.928  0.00  0.00     0.027 H 
ENDBRANCH   2   5
ENDBRANCH   1   2
BRANCH   1   9
ATOM      9  C4  <0> d          -2.134   1.700  -1.228  0.00  0.00    -0.052 C 
ATOM     10  H6  <0> d          -2.319   0.626  -1.233  0.00  0.00     0.034 H 
ATOM     11  H7  <0> d          -3.086   2.232  -1.220  0.00  0.00     0.034 H 
BRANCH   9  12
ATOM     12  C5  <0> d          -1.343   2.087  -2.479  0.00  0.00    -0.075 C 
ATOM     13  H8  <0> d          -0.392   1.555  -2.486  0.00  0.00     0.027 H 
ATOM     14  H9  <0> d          -1.915   1.821  -3.368  0.00  0.00     0.027 H 
ATOM     15  H10 <0> d          -1.159   3.162  -2.474  0.00  0.00     0.027 H 
ENDBRANCH   9  12
ENDBRANCH   1   9
BRANCH   1  16
ATOM     16  C6  <0> d          -2.123   1.687   1.271  0.00  0.00    -0.052 C 
ATOM     17  H11 <0> d          -3.074   2.219   1.278  0.00  0.00     0.034 H 
ATOM     18  H12 <0> d          -2.307   0.612   1.266  0.00  0.00     0.034 H 
BRANCH  16  19
ATOM     19  C7  <0> d          -1.319   2.060   2.518  0.00  0.00    -0.075 C 
ATOM     20  H13 <0> d          -1.135   3.134   2.523  0.00  0.00     0.027 H 
ATOM     21  H14 <0> d          -1.883   1.784   3.409  0.00  0.00     0.027 H 
ATOM     22  H15 <0> d          -0.368   1.528   2.511  0.00  0.00     0.027 H 
ENDBRANCH  16  19
ENDBRANCH   1  16
BRANCH   1  23
ATOM     23  C8  <0> d          -0.016   1.338   0.009  0.00  0.00     0.181 C 
ATOM     24  O1  <0> d           1.022   1.956   0.003  0.00  0.00    -0.647 OA
ATOM     25  O2  <0> d           0.002  -0.004   0.002  0.00  0.00    -0.647 OA
ENDBRANCH   1  23
TORSDOF 7
