REMARK  2 active torsions:
REMARK  status: ('A' for Active; 'I' for Inactive)
REMARK    1  A    between atoms: C1_1  and  N1_2 
REMARK       I    between atoms: N1_2  and  C2_3 
REMARK       I    between atoms: C2_3  and  N2_5 
REMARK    2  A    between atoms: N2_5  and  C3_6 
ROOT
ATOM      1  C3  <0> d          -1.290   1.681   0.017  0.00  0.00     0.014 C 
ATOM      2  C4  <0> d          -1.667   2.032   1.458  0.00  0.00    -0.046 C 
ATOM      3  C5  <0> d          -3.002   2.779   1.468  0.00  0.00    -0.063 C 
ATOM      4  C6  <0> d          -4.088   1.890   0.859  0.00  0.00    -0.065 C 
ATOM      5  C7  <0> d          -3.711   1.539  -0.582  0.00  0.00    -0.063 C 
ATOM      6  C8  <0> d          -2.376   0.792  -0.592  0.00  0.00    -0.046 C 
ATOM      7  H6  <0> d          -1.155   2.594  -0.581  0.00  0.00     0.072 H 
ATOM      8  H7  <0> d          -1.758   1.108   2.048  0.00  0.00     0.035 H 
ATOM      9  H8  <0> d          -0.886   2.671   1.896  0.00  0.00     0.035 H 
ATOM     10  H9  <0> d          -3.273   3.031   2.504  0.00  0.00     0.033 H 
ATOM     11  H10 <0> d          -2.910   3.703   0.878  0.00  0.00     0.033 H 
ATOM     12  H11 <0> d          -4.180   0.967   1.449  0.00  0.00     0.033 H 
ATOM     13  H12 <0> d          -5.048   2.427   0.867  0.00  0.00     0.033 H 
ATOM     14  H13 <0> d          -4.492   0.900  -1.020  0.00  0.00     0.033 H 
ATOM     15  H14 <0> d          -3.619   2.463  -1.172  0.00  0.00     0.033 H 
ATOM     16  H15 <0> d          -2.105   0.540  -1.628  0.00  0.00     0.035 H 
ATOM     17  H16 <0> d          -2.468  -0.131  -0.002  0.00  0.00     0.035 H 
ENDROOT
BRANCH   1  18
ATOM     18  N2  <0> d          -0.011   0.966   0.007  0.00  0.00    -0.339 N 
ATOM     19  C2  <0> d           1.147   1.655  -0.000  0.00  0.00     0.316 C 
ATOM     20  N1  <0> d           2.323   0.998  -0.015  0.00  0.00    -0.347 N 
ATOM     21  O1  <0> d           1.130   2.871   0.007  0.00  0.00    -0.247 OA
ATOM     22  H4  <0> d           2.338  -0.102  -0.021  0.00  0.00     0.163 HD
ATOM     23  H5  <0> d           0.004  -0.134   0.006  0.00  0.00     0.164 HD
BRANCH  20  24
ATOM     24  C1  <0> d           3.582   1.747  -0.023  0.00  0.00    -0.017 C 
ATOM     25  H1  <0> d           4.427   1.044  -0.035  0.00  0.00     0.056 H 
ATOM     26  H2  <0> d           3.640   2.376   0.878  0.00  0.00     0.056 H 
ATOM     27  H3  <0> d           3.623   2.385  -0.918  0.00  0.00     0.056 H 
ENDBRANCH  20  24
ENDBRANCH   1  18
TORSDOF 2
