REMARK  6 active torsions:
REMARK  status: ('A' for Active; 'I' for Inactive)
REMARK    1  A    between atoms: C1_1  and  C2_2 
REMARK    2  A    between atoms: C2_2  and  C3_3 
REMARK    3  A    between atoms: C3_3  and  C4_4 
REMARK    4  A    between atoms: C5_5  and  C10_12 
REMARK    5  A    between atoms: C7_9  and  C8_10 
REMARK    6  A    between atoms: C8_10  and  C9_11 
ROOT
ATOM      1  C4  <0> d          -1.413  -2.041   0.005  0.00  0.00    -0.028 A 
ATOM      2  C5  <0> d          -1.406  -2.868  -1.136  0.00  0.00    -0.038 A 
ATOM      3  C6  <0> d          -1.386  -4.146  -0.706  0.00  0.00    -0.017 A 
ATOM      4  N1  <0> d          -1.380  -4.138   0.657  0.00  0.00    -0.368 N 
ATOM      5  H1  <0> d          -1.367  -4.923   1.227  0.00  0.00     0.165 HD
ATOM      6  C7  <0> d          -1.392  -2.844   1.087  0.00  0.00     0.015 A 
ATOM      7  H9  <0> d          -1.377  -5.025  -1.334  0.00  0.00     0.112 H 
ENDROOT
BRANCH   1   8
ATOM      8  C3  <0> d          -1.433  -0.534   0.013  0.00  0.00    -0.039 C 
ATOM      9  H7  <0> d          -1.944  -0.182   0.910  0.00  0.00     0.040 H 
ATOM     10  H8  <0> d          -1.960  -0.173  -0.870  0.00  0.00     0.040 H 
BRANCH   8  11
ATOM     11  C2  <0> d           0.002  -0.004   0.002  0.00  0.00    -0.065 C 
ATOM     12  H5  <0> d           0.512  -0.356  -0.895  0.00  0.00     0.032 H 
ATOM     13  H6  <0> d           0.529  -0.365   0.885  0.00  0.00     0.032 H 
BRANCH  11  14
ATOM     14  C1  <0> d          -0.019   1.526   0.010  0.00  0.00    -0.076 C 
ATOM     15  H2  <0> d           1.004   1.903   0.003  0.00  0.00     0.027 H 
ATOM     16  H3  <0> d          -0.546   1.887  -0.873  0.00  0.00     0.027 H 
ATOM     17  H4  <0> d          -0.529   1.877   0.907  0.00  0.00     0.027 H 
ENDBRANCH  11  14
ENDBRANCH   8  11
ENDBRANCH   1   8
BRANCH   6  18
ATOM     18  C8  <0> d          -1.385  -2.391   2.524  0.00  0.00    -0.030 C 
ATOM     19  H10 <0> d          -0.934  -3.164   3.147  0.00  0.00     0.041 H 
ATOM     20  H11 <0> d          -0.807  -1.471   2.612  0.00  0.00     0.041 H 
BRANCH  18  21
ATOM     21  C9  <0> d          -2.821  -2.138   2.986  0.00  0.00    -0.071 C 
ATOM     22  H12 <0> d          -2.816  -1.810   4.026  0.00  0.00     0.028 H 
ATOM     23  H13 <0> d          -3.272  -1.365   2.364  0.00  0.00     0.028 H 
ATOM     24  H14 <0> d          -3.398  -3.058   2.898  0.00  0.00     0.028 H 
ENDBRANCH  18  21
ENDBRANCH   6  18
BRANCH   2  25
ATOM     25  C10 <0> d          -1.419  -2.409  -2.571  0.00  0.00    -0.049 C 
ATOM     26  H15 <0> d          -0.395  -2.284  -2.922  0.00  0.00     0.033 H 
ATOM     27  H16 <0> d          -1.925  -3.154  -3.186  0.00  0.00     0.033 H 
ATOM     28  H17 <0> d          -1.947  -1.458  -2.644  0.00  0.00     0.033 H 
ENDBRANCH   2  25
TORSDOF 6
