REMARK  4 active torsions:
REMARK  status: ('A' for Active; 'I' for Inactive)
REMARK    1  A    between atoms: C2_2  and  C3_3 
REMARK    2  A    between atoms: C3_3  and  C4_4 
REMARK    3  A    between atoms: C4_4  and  C5_6 
REMARK    4  A    between atoms: C4_4  and  O1_8 
ROOT
ATOM      1  C4  <0> d          -2.182   1.345  -1.162  0.00  0.00     0.054 C 
ATOM      2  H1  <0> d          -2.291   0.261  -1.126  0.00  0.00     0.089 H 
ENDROOT
BRANCH   1   3
ATOM      3  C3  <0> d          -1.328   1.812   0.018  0.00  0.00    -0.024 C 
ATOM      4  H5  <0> d          -1.853   1.605   0.951  0.00  0.00     0.043 H 
ATOM      5  H6  <0> d          -1.145   2.883  -0.066  0.00  0.00     0.043 H 
BRANCH   3   6
ATOM      6  C2  <0> d          -0.013   1.076   0.008  0.00  0.00    -0.109 C 
ATOM      7  C1  <0> d           1.113   1.746   0.001  0.00  0.00    -0.125 C 
ATOM      8  H2  <0> d           2.055   1.219  -0.011  0.00  0.00     0.066 H 
ATOM      9  H3  <0> d           1.098   2.826   0.007  0.00  0.00     0.066 H 
ATOM     10  H4  <0> d           0.002  -0.004   0.002  0.00  0.00     0.075 H 
ENDBRANCH   3   6
ENDBRANCH   1   3
BRANCH   1  11
ATOM     11  C5  <0> d          -3.543   1.988  -1.082  0.00  0.00    -0.085 C 
ATOM     12  C6  <0> d          -4.003   2.675  -2.099  0.00  0.00    -0.122 C 
ATOM     13  H8  <0> d          -3.408   2.779  -2.994  0.00  0.00     0.066 H 
ATOM     14  H9  <0> d          -4.978   3.136  -2.042  0.00  0.00     0.066 H 
ATOM     15  H7  <0> d          -4.138   1.883  -0.188  0.00  0.00     0.079 H 
ENDBRANCH   1  11
BRANCH   1  16
ATOM     16  O1  <0> d          -1.549   1.720  -2.387  0.00  0.00    -0.391 OA
ATOM     17  H10 <0> d          -1.420   2.673  -2.487  0.00  0.00     0.210 HD
ENDBRANCH   1  16
TORSDOF 4
