REMARK  5 active torsions:
REMARK  status: ('A' for Active; 'I' for Inactive)
REMARK    1  A    between atoms: C1_1  and  O1_2 
REMARK    2  A    between atoms: O1_2  and  C2_3 
REMARK    3  A    between atoms: C5_6  and  O2_10 
REMARK    4  A    between atoms: C6_7  and  N1_9 
REMARK    5  A    between atoms: O2_10  and  C8_11 
ROOT
ATOM      1  C2  <0> d          -1.201  -0.638   0.010  0.00  0.00     0.070 A 
ATOM      2  C3  <0> d          -2.374   0.102   0.020  0.00  0.00    -0.048 A 
ATOM      3  C4  <0> d          -3.599  -0.539   0.028  0.00  0.00    -0.046 A 
ATOM      4  C5  <0> d          -3.658  -1.923   0.028  0.00  0.00     0.094 A 
ATOM      5  C6  <0> d          -2.482  -2.669   0.018  0.00  0.00     0.062 A 
ATOM      6  C7  <0> d          -1.254  -2.023   0.003  0.00  0.00    -0.023 A 
ATOM      7  H4  <0> d          -2.330   1.181   0.021  0.00  0.00     0.087 H 
ATOM      8  H5  <0> d          -4.511   0.040   0.036  0.00  0.00     0.087 H 
ATOM      9  H6  <0> d          -0.341  -2.599  -0.009  0.00  0.00     0.091 H 
ENDROOT
BRANCH   1  10
ATOM     10  O1  <0> d           0.002  -0.004   0.002  0.00  0.00    -0.356 OA
BRANCH  10  11
ATOM     11  C1  <0> d          -0.017   1.425   0.010  0.00  0.00     0.010 C 
ATOM     12  H1  <0> d           1.005   1.802   0.002  0.00  0.00     0.066 H 
ATOM     13  H2  <0> d          -0.544   1.786  -0.873  0.00  0.00     0.066 H 
ATOM     14  H3  <0> d          -0.527   1.776   0.907  0.00  0.00     0.066 H 
ENDBRANCH  10  11
ENDBRANCH   1  10
BRANCH   5  15
ATOM     15  N1  <0> d          -2.539  -4.067   0.017  0.00  0.00    -0.397 N 
ATOM     16  H7  <0> d          -3.398  -4.518   0.023  0.00  0.00     0.156 HD
ATOM     17  H8  <0> d          -1.719  -4.586   0.010  0.00  0.00     0.156 HD
ENDBRANCH   5  15
BRANCH   4  18
ATOM     18  O2  <0> d          -4.864  -2.553   0.037  0.00  0.00    -0.354 OA
BRANCH  18  19
ATOM     19  C8  <0> d          -6.029  -1.725   0.047  0.00  0.00     0.010 C 
ATOM     20  H9  <0> d          -6.920  -2.352   0.054  0.00  0.00     0.066 H 
ATOM     21  H10 <0> d          -6.020  -1.096   0.938  0.00  0.00     0.066 H 
ATOM     22  H11 <0> d          -6.034  -1.095  -0.842  0.00  0.00     0.066 H 
ENDBRANCH  18  19
ENDBRANCH   4  18
TORSDOF 5
