REMARK  4 active torsions:
REMARK  status: ('A' for Active; 'I' for Inactive)
REMARK    1  A    between atoms: C1_1  and  C2_2 
REMARK    2  A    between atoms: C2_2  and  C3_3 
REMARK    3  A    between atoms: C2_2  and  C4_4 
REMARK    4  A    between atoms: C4_4  and  C5_5 
ROOT
ATOM      1  C4  <0> d          -1.433  -0.534   0.013  0.00  0.00    -0.009 C 
ATOM      2  H9  <0> d          -1.419  -1.620   0.097  0.00  0.00     0.045 H 
ATOM      3  H10 <0> d          -1.970  -0.111   0.862  0.00  0.00     0.045 H 
ENDROOT
BRANCH   1   4
ATOM      4  C2  <0> d           0.002  -0.004   0.002  0.00  0.00    -0.055 C 
ATOM      5  H5  <0> d           0.512  -0.356  -0.895  0.00  0.00     0.039 H 
BRANCH   4   6
ATOM      6  C1  <0> d          -0.019   1.526   0.010  0.00  0.00    -0.073 C 
ATOM      7  H2  <0> d           1.004   1.903   0.003  0.00  0.00     0.028 H 
ATOM      8  H3  <0> d          -0.546   1.887  -0.873  0.00  0.00     0.028 H 
ATOM      9  H4  <0> d          -0.529   1.877   0.907  0.00  0.00     0.028 H 
ENDBRANCH   4   6
BRANCH   4  10
ATOM     10  C3  <0> d           0.742  -0.511   1.242  0.00  0.00    -0.073 C 
ATOM     11  H6  <0> d           0.232  -0.159   2.138  0.00  0.00     0.028 H 
ATOM     12  H7  <0> d           0.757  -1.601   1.236  0.00  0.00     0.028 H 
ATOM     13  H8  <0> d           1.765  -0.134   1.234  0.00  0.00     0.028 H 
ENDBRANCH   4  10
ENDBRANCH   1   4
BRANCH   1  14
ATOM     14  C5  <0> d          -2.125  -0.137  -1.266  0.00  0.00     0.081 A 
ATOM     15  N2  <0> d          -2.145  -0.847  -2.383  0.00  0.00    -0.354 N 
ATOM     16  C7  <0> d          -2.862  -0.169  -3.302  0.00  0.00    -0.007 A 
ATOM     17  H13 <0> d          -1.719  -1.709  -2.516  0.00  0.00     0.166 HD
ATOM     18  C6  <0> d          -3.274   0.978  -2.724  0.00  0.00    -0.007 A 
ATOM     19  H12 <0> d          -3.066  -0.484  -4.315  0.00  0.00     0.113 H 
ATOM     20  N1  <0> d          -2.806   0.981  -1.459  0.00  0.00    -0.354 N 
ATOM     21  H11 <0> d          -3.868   1.750  -3.189  0.00  0.00     0.113 H 
ATOM     22  H1  <0> d          -2.946   1.681  -0.803  0.00  0.00     0.166 HD
ENDBRANCH   1  14
TORSDOF 4
