REMARK  4 active torsions:
REMARK  status: ('A' for Active; 'I' for Inactive)
REMARK    1  A    between atoms: C1_1  and  C2_2 
REMARK    2  A    between atoms: C2_2  and  C3_3 
REMARK    3  A    between atoms: C3_3  and  S1_4 
REMARK    4  A    between atoms: S1_4  and  O2_6 
ROOT
ATOM      1  C2  <0> d          -0.822   3.459   1.762  0.00  0.00    -0.056 C 
ATOM      2  H4  <0> d          -1.452   3.870   0.959  0.00  0.00     0.033 H 
ATOM      3  H5  <0> d           0.189   3.888   1.691  0.00  0.00     0.033 H 
ENDROOT
BRANCH   1   4
ATOM      4  C1  <0> d          -1.432   3.814   3.119  0.00  0.00    -0.076 C 
ATOM      5  H1  <0> d          -1.489   4.908   3.221  0.00  0.00     0.027 H 
ATOM      6  H2  <0> d          -0.802   3.404   3.922  0.00  0.00     0.027 H 
ATOM      7  H3  <0> d          -2.442   3.385   3.190  0.00  0.00     0.027 H 
ENDBRANCH   1   4
BRANCH   1   8
ATOM      8  C3  <0> d          -0.742   1.938   1.620  0.00  0.00     0.028 C 
ATOM      9  H6  <0> d          -0.112   1.528   2.423  0.00  0.00     0.056 H 
ATOM     10  H7  <0> d          -1.752   1.509   1.691  0.00  0.00     0.056 H 
BRANCH   8  11
ATOM     11  S1  <0> d          -0.019   1.518   0.010  0.00  0.00     0.150 S 
ATOM     12  O1  <0> d           1.355   1.880  -0.001  0.00  0.00    -0.229 OA
BRANCH  11  13
ATOM     13  O2  <0> d           0.002  -0.004   0.002  0.00  0.00    -0.306 OA
ATOM     14  H8  <0> d           0.398  -0.544  -0.871  0.00  0.00     0.230 HD
ENDBRANCH  11  13
ENDBRANCH   8  11
ENDBRANCH   1   8
TORSDOF 4
