REMARK  1 active torsions:
REMARK  status: ('A' for Active; 'I' for Inactive)
REMARK    1  A    between atoms: C3_3  and  C4_7 
REMARK       I    between atoms: C4_7  and  N3_9 
ROOT
ATOM      1  C1  <0> d          -0.016   1.304   0.009  0.00  0.00     0.045 A 
ATOM      2  C2  <0> d           1.309   1.751  -0.001  0.00  0.00     0.086 A 
ATOM      3  C3  <0> d           2.083   0.603  -0.015  0.00  0.00     0.140 A 
ATOM      4  N1  <0> d           1.207  -0.448  -0.012  0.00  0.00    -0.272 N 
ATOM      5  H1  <0> d           1.458  -1.385  -0.020  0.00  0.00     0.189 HD
ATOM      6  N2  <0> d           0.002  -0.004   0.002  0.00  0.00    -0.185 NA
ATOM      7 Cl1  <0> d           1.865   3.396   0.003  0.00  0.00    -0.080 Cl
ATOM      8  H2  <0> d          -0.897   1.928   0.025  0.00  0.00     0.120 H 
ENDROOT
BRANCH   3   9
ATOM      9  C4  <0> d           3.551   0.528  -0.029  0.00  0.00     0.269 C 
ATOM     10  O1  <0> d           4.213   1.549  -0.030  0.00  0.00    -0.266 OA
ATOM     11  N3  <0> d           4.165  -0.672  -0.041  0.00  0.00    -0.365 N 
ATOM     12  H3  <0> d           3.638  -1.487  -0.041  0.00  0.00     0.159 HD
ATOM     13  H4  <0> d           5.134  -0.722  -0.051  0.00  0.00     0.159 HD
ENDBRANCH   3   9
TORSDOF 1
