REMARK  2 active torsions:
REMARK  status: ('A' for Active; 'I' for Inactive)
REMARK    1  A    between atoms: C1_1  and  N1_2 
REMARK    2  A    between atoms: C7_9  and  N3_11 
ROOT
ATOM      1  N1  <0> d           2.472   3.611  -0.002  0.00  0.00    -0.344 N 
ATOM      2  C2  <0> d           3.245   2.492  -0.016  0.00  0.00     0.067 A 
ATOM      3  N2  <0> d           2.494   1.429  -0.014  0.00  0.00    -0.242 NA
ATOM      4  C3  <0> d           1.186   1.794   0.000  0.00  0.00     0.087 A 
ATOM      5  C4  <0> d           1.152   3.199   0.008  0.00  0.00     0.064 A 
ATOM      6  C5  <0> d          -0.065   3.865   0.024  0.00  0.00    -0.053 A 
ATOM      7  C6  <0> d          -1.242   3.147   0.032  0.00  0.00    -0.055 A 
ATOM      8  C7  <0> d          -1.217   1.754   0.017  0.00  0.00     0.028 A 
ATOM      9  C8  <0> d          -0.013   1.076   0.008  0.00  0.00    -0.028 A 
ATOM     10  H4  <0> d           4.325   2.486  -0.025  0.00  0.00     0.143 H 
ATOM     11  H5  <0> d          -0.091   4.944   0.030  0.00  0.00     0.087 H 
ATOM     12  H6  <0> d          -2.188   3.667   0.043  0.00  0.00     0.087 H 
ATOM     13  H7  <0> d           0.002  -0.004   0.002  0.00  0.00     0.090 H 
ENDROOT
BRANCH   1  14
ATOM     14  C1  <0> d           2.950   4.996   0.000  0.00  0.00    -0.013 C 
ATOM     15  H1  <0> d           3.058   5.345  -1.027  0.00  0.00     0.057 H 
ATOM     16  H2  <0> d           2.231   5.627   0.524  0.00  0.00     0.057 H 
ATOM     17  H3  <0> d           3.914   5.047   0.505  0.00  0.00     0.057 H 
ENDBRANCH   1  14
BRANCH   8  18
ATOM     18  N3  <0> d          -2.419   1.037   0.019  0.00  0.00    -0.399 N 
ATOM     19  H8  <0> d          -2.405   0.067   0.013  0.00  0.00     0.156 HD
ATOM     20  H9  <0> d          -3.266   1.510   0.025  0.00  0.00     0.156 HD
ENDBRANCH   8  18
TORSDOF 2
