REMARK  0 active torsions:
REMARK  status: ('A' for Active; 'I' for Inactive)
ROOT
ATOM      1  C1  <0> d           1.389   3.374   0.007  0.00  0.00    -0.018 A 
ATOM      2  C2  <0> d           2.766   3.536  -0.005  0.00  0.00     0.026 A 
ATOM      3  N1  <0> d           3.336   2.352  -0.017  0.00  0.00    -0.177 NA
ATOM      4  N2  <0> d           2.338   1.371  -0.013  0.00  0.00    -0.204 N 
ATOM      5  C3  <0> d           1.125   2.011   0.002  0.00  0.00     0.153 A 
ATOM      6  N3  <0> d          -0.016   1.308   0.009  0.00  0.00    -0.241 NA
ATOM      7  C4  <0> d           0.002  -0.004   0.002  0.00  0.00     0.007 A 
ATOM      8  C5  <0> d           1.221  -0.694  -0.013  0.00  0.00    -0.027 A 
ATOM      9  C6  <0> d           2.384   0.006  -0.021  0.00  0.00     0.131 A 
ATOM     10 Cl1  <0> d           3.910  -0.823  -0.039  0.00  0.00    -0.062 Cl
ATOM     11  H1  <0> d           0.654   4.166   0.019  0.00  0.00     0.091 H 
ATOM     12  H2  <0> d           3.287   4.482  -0.004  0.00  0.00     0.117 H 
ATOM     13  H3  <0> d          -0.927  -0.554   0.008  0.00  0.00     0.115 H 
ATOM     14  H4  <0> d           1.236  -1.774  -0.019  0.00  0.00     0.090 H 
ENDROOT
TORSDOF 0
