REMARK  2 active torsions:
REMARK  status: ('A' for Active; 'I' for Inactive)
REMARK    1  A    between atoms: C1_1  and  C2_2 
REMARK    2  A    between atoms: C6_7  and  N2_8 
ROOT
ATOM      1  C2  <0> d          -0.718   1.572   1.248  0.00  0.00    -0.033 A 
ATOM      2  C3  <0> d          -2.085   1.795   1.245  0.00  0.00    -0.058 A 
ATOM      3  C4  <0> d          -2.700   2.236   2.402  0.00  0.00     0.002 A 
ATOM      4  N1  <0> d          -2.002   2.455   3.500  0.00  0.00    -0.271 NA
ATOM      5  C5  <0> d          -0.699   2.260   3.544  0.00  0.00     0.027 A 
ATOM      6  C6  <0> d          -0.011   1.813   2.423  0.00  0.00     0.049 A 
ATOM      7  H4  <0> d          -2.665   1.624   0.350  0.00  0.00     0.086 H 
ATOM      8  H5  <0> d          -3.766   2.407   2.407  0.00  0.00     0.114 H 
ATOM      9  H6  <0> d          -0.161   2.450   4.461  0.00  0.00     0.118 H 
ENDROOT
BRANCH   1  10
ATOM     10  C1  <0> d          -0.013   1.086   0.008  0.00  0.00    -0.049 C 
ATOM     11  H1  <0> d           0.002  -0.004   0.002  0.00  0.00     0.033 H 
ATOM     12  H2  <0> d           1.010   1.463   0.000  0.00  0.00     0.033 H 
ATOM     13  H3  <0> d          -0.540   1.447  -0.875  0.00  0.00     0.033 H 
ENDBRANCH   1  10
BRANCH   6  14
ATOM     14  N2  <0> d           1.370   1.608   2.474  0.00  0.00    -0.398 N 
ATOM     15  H7  <0> d           1.844   1.296   1.687  0.00  0.00     0.156 HD
ATOM     16  H8  <0> d           1.856   1.778   3.296  0.00  0.00     0.156 HD
ENDBRANCH   6  14
TORSDOF 2
