REMARK  1 active torsions:
REMARK  status: ('A' for Active; 'I' for Inactive)
REMARK    1  A    between atoms: C1_1  and  C2_2 
ROOT
ATOM      1  C2  <0> d          -2.132   0.975   1.328  0.00  0.00     0.000 C 
ATOM      2  H1  <0> d          -2.071  -0.017   1.437  0.00  0.00     0.051 H 
ATOM      3  C3  <0> d          -0.726   1.578   1.269  0.00  0.00    -0.056 C 
ATOM      4  C4  <0> d          -0.013   1.086   0.008  0.00  0.00    -0.064 C 
ATOM      5  C5  <0> d          -0.750   1.591  -1.233  0.00  0.00    -0.059 C 
ATOM      6  C6  <0> d          -2.158   0.989  -1.270  0.00  0.00    -0.009 C 
ATOM      7  C7  <0> d          -2.850   1.306   0.038  0.00  0.00     0.130 C 
ATOM      8  O1  <0> d          -3.947   1.810   0.052  0.00  0.00    -0.298 OA
ATOM      9  H5  <0> d          -0.162   1.268   2.149  0.00  0.00     0.034 H 
ATOM     10  H6  <0> d          -0.796   2.665   1.246  0.00  0.00     0.034 H 
ATOM     11  H7  <0> d           0.002  -0.004   0.002  0.00  0.00     0.033 H 
ATOM     12  H8  <0> d           1.010   1.462   0.000  0.00  0.00     0.033 H 
ATOM     13  H9  <0> d          -0.820   2.678  -1.197  0.00  0.00     0.033 H 
ATOM     14  H10 <0> d          -0.203   1.292  -2.128  0.00  0.00     0.033 H 
ATOM     15  H11 <0> d          -2.670   1.384  -2.033  0.00  0.00     0.044 H 
ATOM     16  H12 <0> d          -2.092  -0.091  -1.396  0.00  0.00     0.044 H 
ENDROOT
BRANCH   1  17
ATOM     17  C1  <0> d          -2.898   1.572   2.510  0.00  0.00    -0.066 C 
ATOM     18  H2  <0> d          -3.904   1.155   2.539  0.00  0.00     0.028 H 
ATOM     19  H3  <0> d          -2.378   1.333   3.438  0.00  0.00     0.028 H 
ATOM     20  H4  <0> d          -2.957   2.655   2.396  0.00  0.00     0.028 H 
ENDBRANCH   1  17
TORSDOF 1
