REMARK  4 active torsions:
REMARK  status: ('A' for Active; 'I' for Inactive)
REMARK    1  A    between atoms: C1_1  and  C2_2 
REMARK    2  A    between atoms: C2_2  and  C3_3 
REMARK    3  A    between atoms: C4_5  and  C7_9 
REMARK    4  A    between atoms: C5_6  and  C6_8 
ROOT
ATOM      1  C3  <0> d           0.000   1.080   2.488  0.00  0.00     0.145 A 
ATOM      2  N1  <0> d           0.970   1.699   3.098  0.00  0.00    -0.231 NA
ATOM      3  C4  <0> d           1.367   0.953   4.144  0.00  0.00     0.062 A 
ATOM      4  C5  <0> d           0.615  -0.160   4.160  0.00  0.00     0.075 A 
ATOM      5  O1  <0> d          -0.239  -0.076   3.121  0.00  0.00    -0.299 OA
ENDROOT
BRANCH   1   6
ATOM      6  C2  <0> d          -0.729   1.579   1.267  0.00  0.00    -0.007 C 
ATOM      7  H4  <0> d          -0.744   2.669   1.273  0.00  0.00     0.044 H 
ATOM      8  H5  <0> d          -1.751   1.202   1.275  0.00  0.00     0.044 H 
BRANCH   6   9
ATOM      9  C1  <0> d          -0.013   1.086   0.008  0.00  0.00    -0.069 C 
ATOM     10  H1  <0> d           0.002  -0.004   0.002  0.00  0.00     0.028 H 
ATOM     11  H2  <0> d           1.010   1.463   0.000  0.00  0.00     0.028 H 
ATOM     12  H3  <0> d          -0.540   1.447  -0.875  0.00  0.00     0.028 H 
ENDBRANCH   6   9
ENDBRANCH   1   6
BRANCH   4  13
ATOM     13  C6  <0> d           0.710  -1.291   5.152  0.00  0.00    -0.029 C 
ATOM     14  H6  <0> d          -0.030  -2.052   4.906  0.00  0.00     0.036 H 
ATOM     15  H7  <0> d           1.708  -1.727   5.111  0.00  0.00     0.036 H 
ATOM     16  H8  <0> d           0.520  -0.910   6.155  0.00  0.00     0.036 H 
ENDBRANCH   4  13
BRANCH   3  17
ATOM     17  C7  <0> d           2.462   1.300   5.119  0.00  0.00    -0.033 C 
ATOM     18  H9  <0> d           3.412   0.911   4.752  0.00  0.00     0.035 H 
ATOM     19  H10 <0> d           2.528   2.383   5.222  0.00  0.00     0.035 H 
ATOM     20  H11 <0> d           2.239   0.856   6.089  0.00  0.00     0.035 H 
ENDBRANCH   3  17
TORSDOF 4
