REMARK  4 active torsions:
REMARK  status: ('A' for Active; 'I' for Inactive)
REMARK    1  A    between atoms: C1_1  and  C2_2 
REMARK    2  A    between atoms: C3_3  and  O3_10 
REMARK    3  A    between atoms: C5_5  and  O2_9 
REMARK    4  A    between atoms: C7_7  and  O1_8 
ROOT
ATOM      1  C2  <0> d           2.404   0.029  -0.022  0.00  0.00     0.004 A 
ATOM      2  C3  <0> d           1.212  -0.681  -0.014  0.00  0.00     0.076 A 
ATOM      3  C4  <0> d           0.002  -0.004   0.002  0.00  0.00    -0.018 A 
ATOM      4  C5  <0> d          -0.017   1.383   0.010  0.00  0.00     0.071 A 
ATOM      5  C6  <0> d           1.175   2.092   0.002  0.00  0.00    -0.018 A 
ATOM      6  C7  <0> d           2.385   1.415  -0.014  0.00  0.00     0.076 A 
ATOM      7  H4  <0> d          -0.926  -0.557   0.008  0.00  0.00     0.092 H 
ATOM      8  H5  <0> d           1.160   3.172   0.008  0.00  0.00     0.092 H 
ENDROOT
BRANCH   1   9
ATOM      9  C1  <0> d           3.719  -0.707  -0.039  0.00  0.00    -0.046 C 
ATOM     10  H1  <0> d           4.026  -0.879  -1.071  0.00  0.00     0.033 H 
ATOM     11  H2  <0> d           4.476  -0.110   0.471  0.00  0.00     0.033 H 
ATOM     12  H3  <0> d           3.607  -1.664   0.471  0.00  0.00     0.033 H 
ENDBRANCH   1   9
BRANCH   6  13
ATOM     13  O1  <0> d           3.552   2.111  -0.021  0.00  0.00    -0.360 OA
ATOM     14  H6  <0> d           3.882   2.317  -0.906  0.00  0.00     0.217 HD
ENDBRANCH   6  13
BRANCH   2  15
ATOM     15  O3  <0> d           1.231  -2.040  -0.022  0.00  0.00    -0.360 OA
ATOM     16  H8  <0> d           1.227  -2.428  -0.907  0.00  0.00     0.217 HD
ENDBRANCH   2  15
BRANCH   4  17
ATOM     17  O2  <0> d          -1.203   2.046   0.019  0.00  0.00    -0.361 OA
ATOM     18  H7  <0> d          -1.542   2.233   0.905  0.00  0.00     0.217 HD
ENDBRANCH   4  17
TORSDOF 4
