REMARK  4 active torsions:
REMARK  status: ('A' for Active; 'I' for Inactive)
REMARK    1  A    between atoms: C1_1  and  C2_2 
REMARK    2  A    between atoms: C2_2  and  C3_3 
REMARK    3  A    between atoms: C2_2  and  C4_4 
REMARK    4  A    between atoms: C9_10  and  O1_12 
ROOT
ATOM      1  C4  <0> d          -0.771   3.127  -1.223  0.00  0.00    -0.026 C 
ATOM      2  H1  <0> d           0.253   3.501  -1.236  0.00  0.00     0.044 H 
ATOM      3  C5  <0> d          -0.755   1.597  -1.222  0.00  0.00    -0.059 C 
ATOM      4  C6  <0> d          -0.012   1.095   0.018  0.00  0.00    -0.065 C 
ATOM      5  C7  <0> d          -0.722   1.599   1.276  0.00  0.00    -0.063 C 
ATOM      6  C8  <0> d          -0.738   3.128   1.275  0.00  0.00    -0.041 C 
ATOM      7  C9  <0> d          -1.481   3.631   0.036  0.00  0.00     0.039 C 
ATOM      8  H2  <0> d          -2.504   3.256   0.049  0.00  0.00     0.083 H 
ATOM      9  H10 <0> d          -0.249   1.239  -2.119  0.00  0.00     0.033 H 
ATOM     10  H11 <0> d          -1.778   1.224  -1.209  0.00  0.00     0.033 H 
ATOM     11  H12 <0> d          -0.001   0.006   0.018  0.00  0.00     0.033 H 
ATOM     12  H13 <0> d           1.012   1.470   0.004  0.00  0.00     0.033 H 
ATOM     13  H14 <0> d          -1.746   1.225   1.290  0.00  0.00     0.033 H 
ATOM     14  H15 <0> d          -0.193   1.241   2.159  0.00  0.00     0.033 H 
ATOM     15  H16 <0> d           0.286   3.502   1.262  0.00  0.00     0.036 H 
ATOM     16  H17 <0> d          -1.244   3.487   2.172  0.00  0.00     0.036 H 
ENDROOT
BRANCH   1  17
ATOM     17  C2  <0> d          -1.513   3.629  -2.463  0.00  0.00    -0.055 C 
ATOM     18  H6  <0> d          -1.609   4.714  -2.414  0.00  0.00     0.039 H 
BRANCH  17  19
ATOM     19  C1  <0> d          -0.730   3.242  -3.718  0.00  0.00    -0.073 C 
ATOM     20  H3  <0> d          -0.713   2.157  -3.816  0.00  0.00     0.028 H 
ATOM     21  H4  <0> d          -1.209   3.679  -4.595  0.00  0.00     0.028 H 
ATOM     22  H5  <0> d           0.291   3.615  -3.639  0.00  0.00     0.028 H 
ENDBRANCH  17  19
BRANCH  17  23
ATOM     23  C3  <0> d          -2.905   2.996  -2.514  0.00  0.00    -0.073 C 
ATOM     24  H7  <0> d          -3.463   3.272  -1.620  0.00  0.00     0.028 H 
ATOM     25  H8  <0> d          -3.434   3.354  -3.398  0.00  0.00     0.028 H 
ATOM     26  H9  <0> d          -2.809   1.911  -2.563  0.00  0.00     0.028 H 
ENDBRANCH  17  23
ENDBRANCH   1  17
BRANCH   7  27
ATOM     27  O1  <0> d          -1.495   5.059   0.035  0.00  0.00    -0.395 OA
ATOM     28  H18 <0> d          -1.931   5.448   0.806  0.00  0.00     0.210 HD
ENDBRANCH   7  27
TORSDOF 4
