REMARK  3 active torsions:
REMARK  status: ('A' for Active; 'I' for Inactive)
REMARK    1  A    between atoms: C1_1  and  C2_2 
REMARK    2  A    between atoms: C2_2  and  C3_3 
REMARK    3  A    between atoms: C3_3  and  O2_5 
ROOT
ATOM      1  C2  <0> d          -1.329   1.940   0.019  0.00  0.00     0.013 C 
ATOM      2  H4  <0> d          -1.391   2.561   0.913  0.00  0.00     0.047 H 
ATOM      3  H5  <0> d          -1.400   2.570  -0.867  0.00  0.00     0.047 H 
ENDROOT
BRANCH   1   4
ATOM      4  C1  <0> d          -2.479   0.930   0.019  0.00  0.00    -0.068 C 
ATOM      5  H1  <0> d          -2.408   0.299   0.905  0.00  0.00     0.028 H 
ATOM      6  H2  <0> d          -3.430   1.462   0.026  0.00  0.00     0.028 H 
ATOM      7  H3  <0> d          -2.417   0.309  -0.875  0.00  0.00     0.028 H 
ENDBRANCH   1   4
BRANCH   1   8
ATOM      8  C3  <0> d          -0.014   1.204   0.009  0.00  0.00     0.269 C 
ATOM      9  O1  <0> d           0.002  -0.004   0.002  0.00  0.00    -0.264 OA
BRANCH   8  10
ATOM     10  O2  <0> d           1.139   1.891   0.001  0.00  0.00    -0.236 OA
ATOM     11 Br1  <0> d           2.628   0.953  -0.018  0.00  0.00     0.109 Br
ENDBRANCH   8  10
ENDBRANCH   1   8
TORSDOF 3
