REMARK  2 active torsions:
REMARK  status: ('A' for Active; 'I' for Inactive)
REMARK    1  A    between atoms: C1_1  and  C2_2 
REMARK    2  A    between atoms: C6_6  and  C8_8 
ROOT
ATOM      1  C2  <0> d          -1.222   1.748   0.017  0.00  0.00    -0.061 A 
ATOM      2  C3  <0> d          -0.013   1.076   0.008  0.00  0.00    -0.077 A 
ATOM      3  C4  <0> d           1.178   1.781   0.000  0.00  0.00    -0.082 A 
ATOM      4  C5  <0> d           1.166   3.161   0.007  0.00  0.00    -0.073 A 
ATOM      5  C6  <0> d          -0.050   3.845   0.023  0.00  0.00    -0.036 A 
ATOM      6  C7  <0> d          -1.247   3.127   0.031  0.00  0.00    -0.067 A 
ATOM      7  H4  <0> d           0.002  -0.004   0.002  0.00  0.00     0.084 H 
ATOM      8  H5  <0> d           2.118   1.250  -0.011  0.00  0.00     0.083 H 
ATOM      9  H6  <0> d           2.096   3.710   0.001  0.00  0.00     0.084 H 
ATOM     10  H7  <0> d          -2.192   3.651   0.043  0.00  0.00     0.085 H 
ENDROOT
BRANCH   5  11
ATOM     11  C8  <0> d          -0.070   5.323   0.031  0.00  0.00    -0.082 C 
ATOM     12  C9  <0> d           1.069   6.001   0.024  0.00  0.00    -0.120 C 
ATOM     13  H9  <0> d           2.011   5.474   0.012  0.00  0.00     0.066 H 
ATOM     14  H10 <0> d           1.054   7.081   0.030  0.00  0.00     0.066 H 
ATOM     15  H8  <0> d          -1.013   5.850   0.043  0.00  0.00     0.083 H 
ENDBRANCH   5  11
BRANCH   1  16
ATOM     16  C1  <0> d          -2.514   0.972   0.019  0.00  0.00    -0.051 C 
ATOM     17  H1  <0> d          -2.820   0.779   1.047  0.00  0.00     0.033 H 
ATOM     18  H2  <0> d          -3.286   1.551  -0.488  0.00  0.00     0.033 H 
ATOM     19  H3  <0> d          -2.369   0.025  -0.501  0.00  0.00     0.033 H 
ENDBRANCH   1  16
TORSDOF 2
