REMARK  5 active torsions:
REMARK  status: ('A' for Active; 'I' for Inactive)
REMARK    1  A    between atoms: C1_1  and  C2_2 
REMARK    2  A    between atoms: C2_2  and  C3_4 
REMARK    3  A    between atoms: C2_2  and  C8_10 
REMARK    4  A    between atoms: C8_10  and  C9_11 
REMARK    5  A    between atoms: C8_10  and  C10_12 
ROOT
ATOM      1  C2  <0> d           0.002  -0.004   0.002  0.00  0.00    -0.029 C 
ATOM      2  H1  <0> d          -1.020  -0.381   0.010  0.00  0.00     0.047 H 
ENDROOT
BRANCH   1   3
ATOM      3  C1  <0> d          -0.019   1.526   0.010  0.00  0.00    -0.069 C 
ATOM      4  H2  <0> d           1.004   1.903   0.003  0.00  0.00     0.028 H 
ATOM      5  H3  <0> d          -0.546   1.887  -0.873  0.00  0.00     0.028 H 
ATOM      6  H4  <0> d          -0.529   1.877   0.907  0.00  0.00     0.028 H 
ENDBRANCH   1   3
BRANCH   1   7
ATOM      7  C3  <0> d           0.731  -0.503   1.223  0.00  0.00    -0.051 A 
ATOM      8  C7  <0> d           0.093  -1.315   2.148  0.00  0.00    -0.060 A 
ATOM      9  C6  <0> d           0.795  -1.759   3.253  0.00  0.00     0.002 A 
ATOM     10  H8  <0> d          -0.939  -1.601   2.005  0.00  0.00     0.086 H 
ATOM     11  N1  <0> d           2.053  -1.409   3.437  0.00  0.00    -0.273 NA
ATOM     12  H7  <0> d           0.307  -2.396   3.975  0.00  0.00     0.114 H 
ATOM     13  C5  <0> d           2.690  -0.634   2.581  0.00  0.00     0.002 A 
ATOM     14  C4  <0> d           2.054  -0.157   1.451  0.00  0.00    -0.060 A 
ATOM     15  H6  <0> d           3.720  -0.369   2.766  0.00  0.00     0.114 H 
ATOM     16  H5  <0> d           2.581   0.477   0.753  0.00  0.00     0.086 H 
ENDBRANCH   1   7
BRANCH   1  17
ATOM     17  C8  <0> d           0.718  -0.497  -1.257  0.00  0.00    -0.054 C 
ATOM     18  H9  <0> d           1.741  -0.120  -1.264  0.00  0.00     0.040 H 
BRANCH  17  19
ATOM     19  C9  <0> d           0.739  -2.027  -1.265  0.00  0.00    -0.073 C 
ATOM     20  H10 <0> d           1.249  -2.379  -2.162  0.00  0.00     0.028 H 
ATOM     21  H11 <0> d           1.266  -2.388  -0.382  0.00  0.00     0.028 H 
ATOM     22  H12 <0> d          -0.284  -2.405  -1.258  0.00  0.00     0.028 H 
ENDBRANCH  17  19
BRANCH  17  23
ATOM     23  C10 <0> d          -0.022   0.009  -2.496  0.00  0.00    -0.073 C 
ATOM     24  H13 <0> d          -0.037   1.099  -2.490  0.00  0.00     0.028 H 
ATOM     25  H14 <0> d           0.488  -0.342  -3.393  0.00  0.00     0.028 H 
ATOM     26  H15 <0> d          -1.044  -0.368  -2.489  0.00  0.00     0.028 H 
ENDBRANCH  17  23
ENDBRANCH   1  17
TORSDOF 5
