REMARK  2 active torsions:
REMARK  status: ('A' for Active; 'I' for Inactive)
REMARK    1  A    between atoms: C7_8  and  N4_11 
REMARK    2  A    between atoms: N2_9  and  N3_10 
ROOT
ATOM      1  C1  <0> d           0.065   2.595  -4.938  0.00  0.00    -0.081 A 
ATOM      2  C2  <0> d           1.151   2.140  -4.206  0.00  0.00    -0.081 A 
ATOM      3  C3  <0> d           0.994   1.746  -2.894  0.00  0.00    -0.052 A 
ATOM      4  C4  <0> d          -0.259   1.804  -2.301  0.00  0.00     0.101 A 
ATOM      5  C5  <0> d          -1.363   2.261  -3.039  0.00  0.00     0.078 A 
ATOM      6  C6  <0> d          -1.187   2.653  -4.368  0.00  0.00    -0.054 A 
ATOM      7  N1  <0> d          -2.442   2.215  -2.214  0.00  0.00    -0.188 N 
ATOM      8  C7  <0> d          -2.079   1.763  -1.040  0.00  0.00     0.697 A 
ATOM      9  N2  <0> d          -0.741   1.490  -1.041  0.00  0.00    -0.091 N 
ATOM     10  H1  <0> d           0.201   2.901  -5.965  0.00  0.00     0.083 H 
ATOM     11  H2  <0> d           2.127   2.095  -4.667  0.00  0.00     0.083 H 
ATOM     12  H3  <0> d           1.844   1.393  -2.329  0.00  0.00     0.087 H 
ATOM     13  H4  <0> d          -2.029   3.010  -4.944  0.00  0.00     0.087 H 
ATOM     14  H9  <0> d          -3.429   2.534  -2.580  0.00  0.00     0.184 HD
ENDROOT
BRANCH   8  15
ATOM     15  N4  <0> d          -2.921   1.588   0.038  0.00  0.00    -0.233 N 
ATOM     16  H7  <0> d          -2.526   1.202   0.989  0.00  0.00     0.174 HD
ATOM     17  H8  <0> d          -3.989   1.836  -0.054  0.00  0.00     0.174 HD
ENDBRANCH   8  15
BRANCH   9  18
ATOM     18  N3  <0> d          -0.012   1.005   0.008  0.00  0.00    -0.324 N 
ATOM     19  H5  <0> d          -0.504   0.791   0.968  0.00  0.00     0.178 HD
ATOM     20  H6  <0> d           1.068   0.827  -0.108  0.00  0.00     0.178 HD
ENDBRANCH   9  18
TORSDOF 2
