REMARK  1 active torsions:
REMARK  status: ('A' for Active; 'I' for Inactive)
REMARK    1  A    between atoms: C1_1  and  C2_2 
ROOT
ATOM      1  C2  <0> d          -0.729   1.579   1.267  0.00  0.00     0.029 C 
ATOM      2  H1  <0> d          -1.766   1.242   1.269  0.00  0.00     0.055 H 
ATOM      3  C3  <0> d           0.002   1.079   2.533  0.00  0.00    -0.033 C 
ATOM      4  C4  <0> d           0.059   2.356   3.402  0.00  0.00     0.030 C 
ATOM      5  O1  <0> d           0.033   3.452   2.440  0.00  0.00    -0.321 OA
ATOM      6  C5  <0> d          -0.663   3.089   1.353  0.00  0.00     0.262 C 
ATOM      7  O2  <0> d          -1.161   3.852   0.560  0.00  0.00    -0.265 OA
ATOM      8  H5  <0> d          -0.572   0.296   3.029  0.00  0.00     0.037 H 
ATOM      9  H6  <0> d           1.006   0.730   2.289  0.00  0.00     0.037 H 
ATOM     10  H7  <0> d          -0.808   2.406   4.061  0.00  0.00     0.075 H 
ATOM     11  H8  <0> d           0.980   2.379   3.984  0.00  0.00     0.075 H 
ENDROOT
BRANCH   1  12
ATOM     12  C1  <0> d          -0.013   1.086   0.008  0.00  0.00    -0.064 C 
ATOM     13  H2  <0> d           0.002  -0.004   0.002  0.00  0.00     0.028 H 
ATOM     14  H3  <0> d           1.010   1.463   0.000  0.00  0.00     0.028 H 
ATOM     15  H4  <0> d          -0.540   1.447  -0.875  0.00  0.00     0.028 H 
ENDBRANCH   1  12
TORSDOF 1
