REMARK  2 active torsions:
REMARK  status: ('A' for Active; 'I' for Inactive)
REMARK    1  A    between atoms: C1_1  and  C2_2 
REMARK    2  A    between atoms: C5_6  and  N3_8 
ROOT
ATOM      1  C2  <0> d          -2.399   3.618   0.034  0.00  0.00     0.124 A 
ATOM      2  N1  <0> d          -3.554   2.983   0.036  0.00  0.00    -0.246 NA
ATOM      3  C3  <0> d          -3.605   1.659   0.029  0.00  0.00     0.008 A 
ATOM      4  C4  <0> d          -2.426   0.939   0.019  0.00  0.00    -0.022 A 
ATOM      5  C5  <0> d          -1.220   1.642   0.017  0.00  0.00     0.124 A 
ATOM      6  N2  <0> d          -1.250   2.972   0.030  0.00  0.00    -0.217 NA
ATOM      7  H4  <0> d          -4.557   1.149   0.030  0.00  0.00     0.115 H 
ATOM      8  H5  <0> d          -2.437  -0.141   0.013  0.00  0.00     0.091 H 
ENDROOT
BRANCH   1   9
ATOM      9  C1  <0> d          -2.391   5.125   0.043  0.00  0.00    -0.019 C 
ATOM     10  H1  <0> d          -2.384   5.482   1.072  0.00  0.00     0.037 H 
ATOM     11  H2  <0> d          -1.502   5.487  -0.473  0.00  0.00     0.037 H 
ATOM     12  H3  <0> d          -3.281   5.496  -0.465  0.00  0.00     0.037 H 
ENDBRANCH   1   9
BRANCH   5  13
ATOM     13  N3  <0> d          -0.011   0.966   0.007  0.00  0.00    -0.384 N 
ATOM     14  H6  <0> d           0.002  -0.004   0.002  0.00  0.00     0.157 HD
ATOM     15  H7  <0> d           0.822   1.462   0.002  0.00  0.00     0.157 HD
ENDBRANCH   5  13
TORSDOF 2
