REMARK  2 active torsions:
REMARK  status: ('A' for Active; 'I' for Inactive)
REMARK    1  A    between atoms: C1_1  and  O1_2 
REMARK    2  A    between atoms: O1_2  and  C2_3 
ROOT
ATOM      1  C2  <0> d          -0.136   4.152   0.025  0.00  0.00     0.163 A 
ATOM      2  C3  <0> d           1.111   3.534   0.010  0.00  0.00    -0.030 A 
ATOM      3  C4  <0> d           1.182   2.156   0.002  0.00  0.00    -0.057 A 
ATOM      4  C5  <0> d          -0.017   1.428   0.010  0.00  0.00     0.062 A 
ATOM      5  C6  <0> d          -1.229   2.120   0.019  0.00  0.00     0.025 A 
ATOM      6  N1  <0> d          -1.250   3.437   0.032  0.00  0.00    -0.236 NA
ATOM      7  C7  <0> d           0.002  -0.004   0.002  0.00  0.00     0.101 C 
ATOM      8  N2  <0> d           0.018  -1.140  -0.004  0.00  0.00    -0.191 NA
ATOM      9  H4  <0> d           2.014   4.127   0.004  0.00  0.00     0.090 H 
ATOM     10  H5  <0> d           2.136   1.651  -0.009  0.00  0.00     0.086 H 
ATOM     11  H6  <0> d          -2.159   1.570   0.021  0.00  0.00     0.117 H 
ENDROOT
BRANCH   1  12
ATOM     12  O1  <0> d          -0.211   5.505   0.032  0.00  0.00    -0.339 OA
BRANCH  12  13
ATOM     13  C1  <0> d          -1.518   6.082   0.047  0.00  0.00     0.012 C 
ATOM     14  H1  <0> d          -1.435   7.169   0.052  0.00  0.00     0.067 H 
ATOM     15  H2  <0> d          -2.066   5.763  -0.839  0.00  0.00     0.067 H 
ATOM     16  H3  <0> d          -2.050   5.754   0.941  0.00  0.00     0.067 H 
ENDBRANCH  12  13
ENDBRANCH   1  12
TORSDOF 2
