REMARK  2 active torsions:
REMARK  status: ('A' for Active; 'I' for Inactive)
REMARK    1  A    between atoms: C1_1  and  O1_2 
REMARK    2  A    between atoms: O1_2  and  C2_3 
ROOT
ATOM      1  C2  <0> d           0.002  -0.004   0.002  0.00  0.00     0.108 A 
ATOM      2  C3  <0> d          -0.017   1.386   0.010  0.00  0.00    -0.046 A 
ATOM      3  C4  <0> d           1.193   2.062   0.002  0.00  0.00    -0.063 A 
ATOM      4  C5  <0> d           2.371   1.338  -0.013  0.00  0.00     0.004 A 
ATOM      5  N1  <0> d           2.355   0.019  -0.020  0.00  0.00    -0.246 NA
ATOM      6  C6  <0> d           1.225  -0.662  -0.013  0.00  0.00     0.159 A 
ATOM      7 Cl1  <0> d           1.268  -2.397  -0.022  0.00  0.00    -0.059 Cl
ATOM      8  H4  <0> d          -0.952   1.927   0.017  0.00  0.00     0.087 H 
ATOM      9  H5  <0> d           1.216   3.142   0.007  0.00  0.00     0.085 H 
ATOM     10  H6  <0> d           3.316   1.859  -0.020  0.00  0.00     0.114 H 
ENDROOT
BRANCH   1  11
ATOM     11  O1  <0> d          -1.160  -0.709   0.010  0.00  0.00    -0.353 OA
BRANCH  11  12
ATOM     12  C1  <0> d          -2.375   0.042   0.026  0.00  0.00     0.011 C 
ATOM     13  H1  <0> d          -2.405   0.666   0.919  0.00  0.00     0.066 H 
ATOM     14  H2  <0> d          -2.422   0.675  -0.860  0.00  0.00     0.066 H 
ATOM     15  H3  <0> d          -3.225  -0.640   0.031  0.00  0.00     0.066 H 
ENDBRANCH  11  12
ENDBRANCH   1  11
TORSDOF 2
