REMARK  1 active torsions:
REMARK  status: ('A' for Active; 'I' for Inactive)
REMARK    1  A    between atoms: C6_6  and  O1_7 
ROOT
ATOM      1  C1  <0> d          -3.415   2.549   0.030  0.00  0.00    -0.049 A 
ATOM      2  C2  <0> d          -2.507   1.508   0.021  0.00  0.00    -0.052 A 
ATOM      3  C3  <0> d          -1.148   1.777   0.016  0.00  0.00     0.071 A 
ATOM      4  C4  <0> d          -0.696   3.096   0.024  0.00  0.00     0.110 A 
ATOM      5  C5  <0> d          -1.610   4.137   0.037  0.00  0.00    -0.016 A 
ATOM      6  C6  <0> d          -2.969   3.863   0.035  0.00  0.00     0.068 A 
ATOM      7  O2  <0> d           0.659   3.057   0.011  0.00  0.00    -0.259 OA
ATOM      8  C7  <0> d           1.065   1.778   0.001  0.00  0.00     0.370 A 
ATOM      9  O3  <0> d           2.223   1.408  -0.012  0.00  0.00    -0.238 OA
ATOM     10  N1  <0> d          -0.011   0.966   0.007  0.00  0.00    -0.300 N 
ATOM     11  H1  <0> d           0.002  -0.004   0.002  0.00  0.00     0.171 HD
ATOM     12  H2  <0> d          -4.475   2.340   0.034  0.00  0.00     0.087 H 
ATOM     13  H3  <0> d          -2.856   0.485   0.017  0.00  0.00     0.087 H 
ATOM     14  H4  <0> d          -1.265   5.160   0.039  0.00  0.00     0.092 H 
ENDROOT
BRANCH   6  15
ATOM     15  O1  <0> d          -3.866   4.884   0.044  0.00  0.00    -0.361 OA
ATOM     16  H5  <0> d          -4.122   5.175   0.931  0.00  0.00     0.217 HD
ENDBRANCH   6  15
TORSDOF 1
