REMARK  3 active torsions:
REMARK  status: ('A' for Active; 'I' for Inactive)
REMARK    1  A    between atoms: C3_3  and  O3_11 
REMARK    2  A    between atoms: C6_6  and  C7_7 
REMARK    3  A    between atoms: C7_7  and  C8_8 
ROOT
ATOM      1  C1  <0> d          -0.753   1.593  -1.232  0.00  0.00    -0.059 C 
ATOM      2  C2  <0> d          -0.013   1.086   0.008  0.00  0.00    -0.041 C 
ATOM      3  C3  <0> d          -0.729   1.579   1.267  0.00  0.00     0.035 C 
ATOM      4  C4  <0> d          -0.750   3.109   1.275  0.00  0.00    -0.041 C 
ATOM      5  C5  <0> d          -1.490   3.616   0.036  0.00  0.00    -0.059 C 
ATOM      6  C6  <0> d          -0.773   3.123  -1.223  0.00  0.00    -0.045 C 
ATOM      7  H1  <0> d          -1.785   1.212  -1.224  0.00  0.00     0.033 H 
ATOM      8  H2  <0> d          -0.238   1.238  -2.136  0.00  0.00     0.033 H 
ATOM      9  H3  <0> d           0.002  -0.014   0.002  0.00  0.00     0.036 H 
ATOM     10  H4  <0> d           1.019   1.466   0.000  0.00  0.00     0.036 H 
ATOM     11  H5  <0> d          -1.746   1.166   1.335  0.00  0.00     0.082 H 
ATOM     12  H6  <0> d          -1.264   3.464   2.180  0.00  0.00     0.036 H 
ATOM     13  H7  <0> d           0.282   3.490   1.267  0.00  0.00     0.036 H 
ATOM     14  H8  <0> d          -2.522   3.235   0.043  0.00  0.00     0.033 H 
ATOM     15  H9  <0> d          -1.505   4.716   0.042  0.00  0.00     0.033 H 
ATOM     16  H10 <0> d           0.259   3.503  -1.231  0.00  0.00     0.040 H 
ENDROOT
BRANCH   6  17
ATOM     17  C7  <0> d          -1.513   3.629  -2.463  0.00  0.00     0.019 C 
ATOM     18  H11 <0> d          -1.052   3.202  -3.365  0.00  0.00     0.049 H 
ATOM     19  H12 <0> d          -2.569   3.324  -2.410  0.00  0.00     0.049 H 
BRANCH  17  20
ATOM     20  C8  <0> d          -1.428   5.133  -2.519  0.00  0.00     0.172 C 
ATOM     21  O1  <0> d          -0.836   5.737  -1.656  0.00  0.00    -0.648 OA
ATOM     22  O2  <0> d          -2.010   5.801  -3.527  0.00  0.00    -0.648 OA
ENDBRANCH  17  20
ENDBRANCH   6  17
BRANCH   3  23
ATOM     23  O3  <0> d          -0.038   1.106   2.425  0.00  0.00    -0.396 OA
ATOM     24  H13 <0> d          -0.408   1.361   3.429  0.00  0.00     0.210 HD
ENDBRANCH   3  23
TORSDOF 3
