REMARK  1 active torsions:
REMARK  status: ('A' for Active; 'I' for Inactive)
REMARK    1  A    between atoms: C1_1  and  C2_2 
ROOT
ATOM      1  C2  <0> d           1.113   3.176   0.008  0.00  0.00    -0.022 A 
ATOM      2  C3  <0> d           1.175   1.792   0.001  0.00  0.00    -0.073 A 
ATOM      3  C4  <0> d          -0.013   1.076   0.008  0.00  0.00    -0.065 A 
ATOM      4  C5  <0> d          -1.218   1.758   0.017  0.00  0.00     0.004 A 
ATOM      5  N1  <0> d          -1.249   3.074   0.030  0.00  0.00    -0.249 NA
ATOM      6  C6  <0> d          -0.136   3.797   0.023  0.00  0.00     0.142 A 
ATOM      7  C7  <0> d          -0.217   5.227   0.030  0.00  0.00     0.120 C 
ATOM      8  N2  <0> d          -0.282   6.361   0.036  0.00  0.00    -0.190 NA
ATOM      9  H4  <0> d           2.127   1.282  -0.011  0.00  0.00     0.084 H 
ATOM     10  H5  <0> d           0.002  -0.004   0.002  0.00  0.00     0.085 H 
ATOM     11  H6  <0> d          -2.144   1.204   0.019  0.00  0.00     0.114 H 
ENDROOT
BRANCH   1  12
ATOM     12  C1  <0> d           2.376   3.998   0.001  0.00  0.00    -0.048 C 
ATOM     13  H1  <0> d           2.671   4.201  -1.028  0.00  0.00     0.033 H 
ATOM     14  H2  <0> d           2.199   4.939   0.521  0.00  0.00     0.033 H 
ATOM     15  H3  <0> d           3.170   3.447   0.505  0.00  0.00     0.033 H 
ENDBRANCH   1  12
TORSDOF 1
