REMARK  1 active torsions:
REMARK  status: ('A' for Active; 'I' for Inactive)
REMARK    1  A    between atoms: C1_1  and  N1_2 
ROOT
ATOM      1  N1  <0> d          -2.424   1.081   0.019  0.00  0.00    -0.360 N 
ATOM      2  C2  <0> d          -3.610   1.736   0.028  0.00  0.00    -0.017 A 
ATOM      3  C3  <0> d          -3.695   3.082   0.035  0.00  0.00    -0.019 A 
ATOM      4  C4  <0> d          -2.519   3.868   0.045  0.00  0.00     0.185 A 
ATOM      5  O1  <0> d          -2.574   5.086   0.052  0.00  0.00    -0.287 OA
ATOM      6  C5  <0> d          -1.224   3.164   0.030  0.00  0.00     0.041 A 
ATOM      7  C6  <0> d          -1.225   1.758   0.017  0.00  0.00     0.048 A 
ATOM      8  C7  <0> d          -0.013   1.076   0.008  0.00  0.00    -0.056 A 
ATOM      9  C8  <0> d           1.169   1.784   0.001  0.00  0.00    -0.081 A 
ATOM     10  C9  <0> d           1.164   3.172   0.007  0.00  0.00    -0.082 A 
ATOM     11  C10 <0> d          -0.016   3.862   0.022  0.00  0.00    -0.067 A 
ATOM     12  H4  <0> d          -4.522   1.158   0.029  0.00  0.00     0.111 H 
ATOM     13  H5  <0> d          -4.663   3.561   0.043  0.00  0.00     0.091 H 
ATOM     14  H6  <0> d           0.002  -0.004   0.002  0.00  0.00     0.087 H 
ATOM     15  H7  <0> d           2.110   1.254  -0.011  0.00  0.00     0.083 H 
ATOM     16  H8  <0> d           2.100   3.711   0.001  0.00  0.00     0.083 H 
ATOM     17  H9  <0> d          -0.013   4.942   0.028  0.00  0.00     0.085 H 
ENDROOT
BRANCH   1  18
ATOM     18  C1  <0> d          -2.417  -0.384   0.011  0.00  0.00    -0.014 C 
ATOM     19  H1  <0> d          -2.410  -0.753   1.037  0.00  0.00     0.057 H 
ATOM     20  H2  <0> d          -3.307  -0.749  -0.500  0.00  0.00     0.057 H 
ATOM     21  H3  <0> d          -1.528  -0.740  -0.509  0.00  0.00     0.057 H 
ENDBRANCH   1  18
TORSDOF 1
