REMARK  1 active torsions:
REMARK  status: ('A' for Active; 'I' for Inactive)
REMARK    1  A    between atoms: C4_5  and  C7_11 
ROOT
ATOM      1  C1  <0> d          -0.019   1.529   0.010  0.00  0.00    -0.045 C 
ATOM      2  C2  <0> d           1.428   2.032  -0.001  0.00  0.00    -0.057 C 
ATOM      3  C3  <0> d           2.206   1.360   1.133  0.00  0.00    -0.013 A 
ATOM      4  H1  <0> d           2.735   2.036   1.805  0.00  0.00     0.045 H 
ATOM      5  C4  <0> d           2.889   0.029   0.787  0.00  0.00     0.061 A 
ATOM      6  H2  <0> d           2.739  -0.368  -0.217  0.00  0.00     0.061 H 
ATOM      7  C5  <0> d           1.688   0.051   1.718  0.00  0.00     0.056 A 
ATOM      8  H3  <0> d           1.895  -0.118   2.775  0.00  0.00     0.085 H 
ATOM      9  O1  <0> d           0.445  -0.471   1.273  0.00  0.00    -0.385 OA
ATOM     10  C6  <0> d           0.002  -0.004   0.002  0.00  0.00     0.020 C 
ATOM     11  H4  <0> d          -0.524   1.884   0.908  0.00  0.00     0.036 H 
ATOM     12  H5  <0> d          -0.541   1.894  -0.874  0.00  0.00     0.036 H 
ATOM     13  H6  <0> d           1.891   1.785  -0.956  0.00  0.00     0.033 H 
ATOM     14  H7  <0> d           1.438   3.112   0.141  0.00  0.00     0.033 H 
ATOM     15  H8  <0> d          -1.000  -0.382  -0.200  0.00  0.00     0.074 H 
ATOM     16  H9  <0> d           0.689  -0.356  -0.768  0.00  0.00     0.074 H 
ENDROOT
BRANCH   5  17
ATOM     17  C7  <0> d           4.240  -0.240   1.398  0.00  0.00     0.180 C 
ATOM     18  O2  <0> d           4.584  -1.386   1.635  0.00  0.00    -0.648 OA
ATOM     19  O3  <0> d           4.988   0.687   1.655  0.00  0.00    -0.648 OA
ENDBRANCH   5  17
TORSDOF 1
