REMARK  1 active torsions:
REMARK  status: ('A' for Active; 'I' for Inactive)
REMARK    1  A    between atoms: C1_1  and  C2_2 
ROOT
ATOM      1  C2  <0> d           0.002  -0.004   0.002  0.00  0.00     0.017 A 
ATOM      2  C3  <0> d           1.210  -0.682  -0.014  0.00  0.00     0.125 A 
ATOM      3  C4  <0> d           2.406   0.019  -0.021  0.00  0.00    -0.043 A 
ATOM      4  C5  <0> d           2.402   1.397  -0.014  0.00  0.00    -0.057 A 
ATOM      5  C6  <0> d           1.188   2.089   0.002  0.00  0.00     0.083 A 
ATOM      6  C7  <0> d          -0.017   1.377   0.010  0.00  0.00     0.146 A 
ATOM      7  F1  <0> d          -1.195   2.039   0.019  0.00  0.00    -0.204 F 
ATOM      8  C8  <0> d           1.177   3.521   0.009  0.00  0.00     0.102 C 
ATOM      9  N1  <0> d           1.169   4.657   0.015  0.00  0.00    -0.191 NA
ATOM     10  F2  <0> d           1.222  -2.033  -0.022  0.00  0.00    -0.205 F 
ATOM     11  H4  <0> d           3.344  -0.516  -0.034  0.00  0.00     0.088 H 
ATOM     12  H5  <0> d           3.335   1.941  -0.020  0.00  0.00     0.086 H 
ENDROOT
BRANCH   1  13
ATOM     13  C1  <0> d          -1.293  -0.774   0.010  0.00  0.00    -0.045 C 
ATOM     14  H1  <0> d          -1.615  -0.954  -1.015  0.00  0.00     0.033 H 
ATOM     15  H2  <0> d          -1.146  -1.728   0.518  0.00  0.00     0.033 H 
ATOM     16  H3  <0> d          -2.055  -0.198   0.534  0.00  0.00     0.033 H 
ENDBRANCH   1  13
TORSDOF 1
