REMARK  1 active torsions:
REMARK  status: ('A' for Active; 'I' for Inactive)
REMARK    1  A    between atoms: C2_2  and  C3_3 
ROOT
ATOM      1  C3  <0> d           1.292  -0.726  -0.014  0.00  0.00     0.005 A 
ATOM      2  C4  <0> d           2.492  -0.015  -0.016  0.00  0.00    -0.033 A 
ATOM      3  C5  <0> d           3.695  -0.695  -0.031  0.00  0.00     0.117 A 
ATOM      4  C6  <0> d           3.710  -2.081  -0.045  0.00  0.00    -0.043 A 
ATOM      5  C7  <0> d           2.524  -2.791  -0.043  0.00  0.00    -0.042 A 
ATOM      6  C8  <0> d           1.314  -2.123  -0.022  0.00  0.00     0.126 A 
ATOM      7  F1  <0> d           0.156  -2.818  -0.015  0.00  0.00    -0.205 F 
ATOM      8  F2  <0> d           4.858  -0.008  -0.034  0.00  0.00    -0.206 F 
ATOM      9  H4  <0> d           2.482   1.065  -0.006  0.00  0.00     0.089 H 
ATOM     10  H5  <0> d           4.652  -2.608  -0.057  0.00  0.00     0.088 H 
ATOM     11  H6  <0> d           2.542  -3.871  -0.053  0.00  0.00     0.088 H 
ENDROOT
BRANCH   1  12
ATOM     12  C2  <0> d           0.002  -0.004   0.002  0.00  0.00    -0.079 C 
ATOM     13  C1  <0> d          -0.016   1.322   0.009  0.00  0.00    -0.120 C 
ATOM     14  H1  <0> d           0.912   1.874   0.003  0.00  0.00     0.066 H 
ATOM     15  H2  <0> d          -0.958   1.849   0.017  0.00  0.00     0.066 H 
ATOM     16  H3  <0> d          -0.926  -0.557   0.008  0.00  0.00     0.083 H 
ENDBRANCH   1  12
TORSDOF 1
