REMARK  1 active torsions:
REMARK  status: ('A' for Active; 'I' for Inactive)
REMARK    1  A    between atoms: C1_1  and  N4_9 
ROOT
ATOM      1  C1  <0> d          -0.016   1.326   0.009  0.00  0.00     0.726 A 
ATOM      2  N1  <0> d           1.127   2.005   0.002  0.00  0.00    -0.016 NA
ATOM      3  C2  <0> d           2.282   1.353  -0.013  0.00  0.00     0.318 A 
ATOM      4  N2  <0> d           2.295   0.024  -0.020  0.00  0.00    -0.173 NA
ATOM      5  C3  <0> d           1.156  -0.650  -0.013  0.00  0.00     0.244 A 
ATOM      6  N3  <0> d           0.002  -0.004   0.002  0.00  0.00    -0.031 NA
ATOM      7 Cl1  <0> d           1.177  -2.386  -0.023  0.00  0.00    -0.040 Cl
ATOM      8  O1  <0> d           3.448   2.041  -0.020  0.00  0.00    -0.146 OA
ENDROOT
BRANCH   1   9
ATOM      9  N4  <0> d          -1.220   2.001   0.030  0.00  0.00    -0.231 N 
ATOM     10  H1  <0> d          -2.053   1.505   0.040  0.00  0.00     0.174 HD
ATOM     11  H2  <0> d          -1.232   2.971   0.035  0.00  0.00     0.174 HD
ENDBRANCH   1   9
TORSDOF 1
