REMARK  5 active torsions:
REMARK  status: ('A' for Active; 'I' for Inactive)
REMARK    1  A    between atoms: C1_1  and  C2_2 
REMARK    2  A    between atoms: C2_2  and  O1_3 
REMARK    3  A    between atoms: O1_3  and  C3_4 
REMARK    4  A    between atoms: C5_6  and  N1_11 
REMARK    5  A    between atoms: C8_9  and  C9_10 
ROOT
ATOM      1  C3  <0> d           1.161   3.169   0.007  0.00  0.00     0.076 A 
ATOM      2  C4  <0> d          -0.048   3.849   0.022  0.00  0.00    -0.025 A 
ATOM      3  C5  <0> d          -1.240   3.138   0.030  0.00  0.00     0.028 A 
ATOM      4  C6  <0> d          -1.219   1.749   0.017  0.00  0.00    -0.057 A 
ATOM      5  C7  <0> d          -0.013   1.076   0.008  0.00  0.00    -0.072 A 
ATOM      6  C8  <0> d           1.176   1.782   0.000  0.00  0.00    -0.029 A 
ATOM      7  H6  <0> d          -0.061   4.928   0.028  0.00  0.00     0.091 H 
ATOM      8  H7  <0> d          -2.146   1.195   0.019  0.00  0.00     0.086 H 
ATOM      9  H8  <0> d           0.002  -0.004   0.002  0.00  0.00     0.084 H 
ENDROOT
BRANCH   1  10
ATOM     10  O1  <0> d           2.330   3.862   0.001  0.00  0.00    -0.351 OA
BRANCH  10  11
ATOM     11  C2  <0> d           2.239   5.288   0.009  0.00  0.00     0.023 C 
ATOM     12  H4  <0> d           1.695   5.623  -0.875  0.00  0.00     0.074 H 
ATOM     13  H5  <0> d           1.711   5.614   0.905  0.00  0.00     0.074 H 
BRANCH  11  14
ATOM     14  C1  <0> d           3.646   5.889  -0.001  0.00  0.00    -0.056 C 
ATOM     15  H1  <0> d           4.190   5.554   0.882  0.00  0.00     0.030 H 
ATOM     16  H2  <0> d           4.174   5.563  -0.897  0.00  0.00     0.030 H 
ATOM     17  H3  <0> d           3.577   6.976   0.005  0.00  0.00     0.030 H 
ENDBRANCH  11  14
ENDBRANCH  10  11
ENDBRANCH   1  10
BRANCH   6  18
ATOM     18  C9  <0> d           2.489   1.044  -0.016  0.00  0.00    -0.049 C 
ATOM     19  H9  <0> d           2.796   0.871  -1.048  0.00  0.00     0.033 H 
ATOM     20  H10 <0> d           3.247   1.639   0.494  0.00  0.00     0.033 H 
ATOM     21  H11 <0> d           2.375   0.087   0.494  0.00  0.00     0.033 H 
ENDBRANCH   6  18
BRANCH   3  22
ATOM     22  N1  <0> d          -2.459   3.819   0.044  0.00  0.00    -0.399 N 
ATOM     23  H12 <0> d          -2.474   4.789   0.049  0.00  0.00     0.156 HD
ATOM     24  H13 <0> d          -3.292   3.322   0.050  0.00  0.00     0.156 HD
ENDBRANCH   3  22
TORSDOF 5
