REMARK  3 active torsions:
REMARK  status: ('A' for Active; 'I' for Inactive)
REMARK    1  A    between atoms: C4_4  and  C7_7 
REMARK    2  A    between atoms: C8_8  and  C9_9 
REMARK    3  A    between atoms: C9_9  and  O1_10 
ROOT
ATOM      1  C1  <0> d           1.515  -5.180  -0.040  0.00  0.00    -0.065 C 
ATOM      2  C2  <0> d           0.775  -4.673  -1.280  0.00  0.00    -0.064 C 
ATOM      3  C3  <0> d           0.754  -3.143  -1.271  0.00  0.00    -0.052 C 
ATOM      4  C4  <0> d           0.038  -2.650  -0.013  0.00  0.00     0.006 C 
ATOM      5  C5  <0> d           0.778  -3.157   1.227  0.00  0.00    -0.052 C 
ATOM      6  C6  <0> d           0.799  -4.686   1.219  0.00  0.00    -0.064 C 
ATOM      7  H1  <0> d           1.530  -6.270  -0.046  0.00  0.00     0.033 H 
ATOM      8  H2  <0> d           2.537  -4.803  -0.048  0.00  0.00     0.033 H 
ATOM      9  H3  <0> d          -0.248  -5.050  -1.272  0.00  0.00     0.033 H 
ATOM     10  H4  <0> d           1.285  -5.025  -2.176  0.00  0.00     0.033 H 
ATOM     11  H5  <0> d           0.227  -2.782  -2.154  0.00  0.00     0.034 H 
ATOM     12  H6  <0> d           1.777  -2.766  -1.279  0.00  0.00     0.034 H 
ATOM     13  H7  <0> d          -0.985  -3.027  -0.005  0.00  0.00     0.059 H 
ATOM     14  H8  <0> d           1.800  -2.779   1.219  0.00  0.00     0.034 H 
ATOM     15  H9  <0> d           0.268  -2.805   2.124  0.00  0.00     0.034 H 
ATOM     16  H10 <0> d          -0.224  -5.064   1.226  0.00  0.00     0.033 H 
ATOM     17  H11 <0> d           1.326  -5.048   2.102  0.00  0.00     0.033 H 
ENDROOT
BRANCH   4  18
ATOM     18  C7  <0> d           0.018  -1.178  -0.004  0.00  0.00    -0.100 C 
ATOM     19  C8  <0> d           0.002  -0.004   0.002  0.00  0.00    -0.080 C 
BRANCH  19  20
ATOM     20  C9  <0> d          -0.018   1.468   0.010  0.00  0.00     0.071 C 
ATOM     21  H12 <0> d          -0.545   1.829  -0.873  0.00  0.00     0.093 H 
ATOM     22  H13 <0> d          -0.528   1.819   0.907  0.00  0.00     0.093 H 
BRANCH  20  23
ATOM     23  O1  <0> d           1.323   1.962  -0.000  0.00  0.00    -0.389 OA
ATOM     24  H14 <0> d           1.386   2.927   0.004  0.00  0.00     0.210 HD
ENDBRANCH  20  23
ENDBRANCH  19  20
ENDBRANCH   4  18
TORSDOF 3
