REMARK  5 active torsions:
REMARK  status: ('A' for Active; 'I' for Inactive)
REMARK    1  A    between atoms: C2_2  and  C4_8 
REMARK    2  A    between atoms: C3_3  and  N3_7 
REMARK    3  A    between atoms: C4_8  and  C5_9 
REMARK    4  A    between atoms: C5_9  and  C6_10 
REMARK    5  A    between atoms: C6_10  and  O1_11 
ROOT
ATOM      1  C4  <0> d           1.745   3.203   0.003  0.00  0.00    -0.034 C 
ATOM      2  H5  <0> d           0.965   3.820   0.448  0.00  0.00     0.040 H 
ATOM      3  H6  <0> d           2.663   3.301   0.584  0.00  0.00     0.040 H 
ENDROOT
BRANCH   1   4
ATOM      4  C2  <0> d           1.305   1.762  -0.001  0.00  0.00     0.006 A 
ATOM      5  C1  <0> d          -0.016   1.304   0.009  0.00  0.00     0.031 A 
ATOM      6  N2  <0> d           0.002  -0.004   0.002  0.00  0.00    -0.185 NA
ATOM      7  H2  <0> d          -0.900   1.925   0.025  0.00  0.00     0.118 H 
ATOM      8  N1  <0> d           1.337  -0.428  -0.013  0.00  0.00    -0.263 N 
ATOM      9  C3  <0> d           2.123   0.673  -0.015  0.00  0.00     0.122 A 
ATOM     10  H1  <0> d           1.644  -1.348  -0.020  0.00  0.00     0.190 HD
BRANCH   9  11
ATOM     11  N3  <0> d           3.515   0.690  -0.029  0.00  0.00    -0.384 N 
ATOM     12  H3  <0> d           3.990   1.536  -0.029  0.00  0.00     0.157 HD
ATOM     13  H4  <0> d           4.010  -0.144  -0.038  0.00  0.00     0.157 HD
ENDBRANCH   9  11
ENDBRANCH   1   4
BRANCH   1  14
ATOM     14  C5  <0> d           2.000   3.662  -1.435  0.00  0.00    -0.042 C 
ATOM     15  H7  <0> d           2.781   3.045  -1.880  0.00  0.00     0.036 H 
ATOM     16  H8  <0> d           1.083   3.563  -2.015  0.00  0.00     0.036 H 
BRANCH  14  17
ATOM     17  C6  <0> d           2.447   5.125  -1.431  0.00  0.00     0.017 C 
ATOM     18  H9  <0> d           1.667   5.742  -0.985  0.00  0.00     0.073 H 
ATOM     19  H10 <0> d           3.365   5.223  -0.850  0.00  0.00     0.073 H 
BRANCH  17  20
ATOM     20  O1  <0> d           2.686   5.553  -2.773  0.00  0.00    -0.401 OA
ATOM     21  H11 <0> d           2.973   6.474  -2.847  0.00  0.00     0.209 HD
ENDBRANCH  17  20
ENDBRANCH  14  17
ENDBRANCH   1  14
TORSDOF 5
