REMARK  2 active torsions:
REMARK  status: ('A' for Active; 'I' for Inactive)
REMARK    1  A    between atoms: C4_4  and  C7_7 
REMARK    2  A    between atoms: C7_7  and  O2_11 
ROOT
ATOM      1  C1  <0> d          -0.017   1.378   0.010  0.00  0.00    -0.083 A 
ATOM      2  C2  <0> d           1.171   2.086   0.002  0.00  0.00    -0.082 A 
ATOM      3  C3  <0> d           2.377   1.411  -0.013  0.00  0.00    -0.074 A 
ATOM      4  C4  <0> d           2.396   0.029  -0.020  0.00  0.00    -0.020 A 
ATOM      5  C5  <0> d           1.208  -0.679  -0.012  0.00  0.00    -0.074 A 
ATOM      6  C6  <0> d           0.002  -0.004   0.002  0.00  0.00    -0.082 A 
ATOM      7  H1  <0> d          -0.959   1.905   0.026  0.00  0.00     0.083 H 
ATOM      8  H2  <0> d           1.156   3.165   0.008  0.00  0.00     0.083 H 
ATOM      9  H3  <0> d           3.305   1.963  -0.020  0.00  0.00     0.084 H 
ATOM     10  H4  <0> d           1.223  -1.759  -0.018  0.00  0.00     0.084 H 
ATOM     11  H5  <0> d          -0.926  -0.557   0.008  0.00  0.00     0.083 H 
ENDROOT
BRANCH   4  12
ATOM     12  C7  <0> d           3.711  -0.707  -0.038  0.00  0.00     0.127 C 
ATOM     13  C9  <0> d           3.666  -2.079   0.661  0.00  0.00     0.054 C 
ATOM     14  O1  <0> d           4.433  -2.551  -0.465  0.00  0.00    -0.384 OA
ATOM     15  H8  <0> d           4.206  -2.111   1.607  0.00  0.00     0.079 H 
ATOM     16  H9  <0> d           2.666  -2.509   0.724  0.00  0.00     0.079 H 
ATOM     17  C8  <0> d           3.963  -1.501  -1.333  0.00  0.00     0.054 C 
ATOM     18  H6  <0> d           3.054  -1.754  -1.879  0.00  0.00     0.079 H 
ATOM     19  H7  <0> d           4.739  -1.073  -1.969  0.00  0.00     0.079 H 
BRANCH  12  20
ATOM     20  O2  <0> d           4.813   0.109   0.365  0.00  0.00    -0.381 OA
ATOM     21  H10 <0> d           5.665  -0.349   0.359  0.00  0.00     0.211 HD
ENDBRANCH  12  20
ENDBRANCH   4  12
TORSDOF 2
