REMARK  2 active torsions:
REMARK  status: ('A' for Active; 'I' for Inactive)
REMARK    1  A    between atoms: C1_1  and  C2_2 
REMARK    2  A    between atoms: C6_6  and  O1_9 
ROOT
ATOM      1  C2  <0> d           0.002  -0.004   0.002  0.00  0.00    -0.021 A 
ATOM      2  C3  <0> d          -0.017   1.379   0.010  0.00  0.00    -0.074 A 
ATOM      3  C4  <0> d           1.169   2.089   0.002  0.00  0.00    -0.080 A 
ATOM      4  C5  <0> d           2.378   1.419  -0.013  0.00  0.00    -0.048 A 
ATOM      5  C6  <0> d           2.401   0.033  -0.021  0.00  0.00     0.104 A 
ATOM      6  C7  <0> d           1.209  -0.680  -0.013  0.00  0.00     0.155 A 
ATOM      7  F1  <0> d           1.227  -2.031  -0.020  0.00  0.00    -0.203 F 
ATOM      8  H4  <0> d          -0.960   1.905   0.017  0.00  0.00     0.084 H 
ATOM      9  H5  <0> d           1.151   3.168   0.008  0.00  0.00     0.083 H 
ATOM     10  H6  <0> d           3.304   1.975  -0.019  0.00  0.00     0.087 H 
ENDROOT
BRANCH   1  11
ATOM     11  C1  <0> d          -1.293  -0.775   0.011  0.00  0.00    -0.048 C 
ATOM     12  H1  <0> d          -2.138  -0.071   0.023  0.00  0.00     0.033 H 
ATOM     13  H2  <0> d          -1.334  -1.413   0.906  0.00  0.00     0.033 H 
ATOM     14  H3  <0> d          -1.351  -1.403  -0.890  0.00  0.00     0.033 H 
ENDBRANCH   1  11
BRANCH   5  15
ATOM     15  O1  <0> d           3.590  -0.628  -0.035  0.00  0.00    -0.358 OA
ATOM     16  H7  <0> d           3.607  -1.728  -0.041  0.00  0.00     0.217 HD
ENDBRANCH   5  15
TORSDOF 2
