REMARK  4 active torsions:
REMARK  status: ('A' for Active; 'I' for Inactive)
REMARK    1  A    between atoms: C1_1  and  C2_2 
REMARK    2  A    between atoms: C2_2  and  C3_3 
REMARK    3  A    between atoms: C2_2  and  C4_4 
REMARK    4  A    between atoms: C6_6  and  N3_10 
ROOT
ATOM      1  C4  <0> d           0.707  -0.490  -1.238  0.00  0.00     0.061 A 
ATOM      2  C5  <0> d           0.124  -0.665  -2.496  0.00  0.00    -0.014 A 
ATOM      3  C6  <0> d           1.089  -1.116  -3.344  0.00  0.00     0.117 A 
ATOM      4  N1  <0> d           2.238  -1.218  -2.637  0.00  0.00    -0.263 N 
ATOM      5  H1  <0> d           3.095  -1.514  -2.981  0.00  0.00     0.190 HD
ATOM      6  N2  <0> d           1.972  -0.815  -1.322  0.00  0.00    -0.177 NA
ATOM      7  H9  <0> d          -0.909  -0.477  -2.750  0.00  0.00     0.092 H 
ENDROOT
BRANCH   1   8
ATOM      8  C2  <0> d           0.002  -0.004   0.002  0.00  0.00    -0.017 C 
ATOM      9  H5  <0> d           0.529  -0.365   0.885  0.00  0.00     0.048 H 
BRANCH   8  10
ATOM     10  C1  <0> d          -0.019   1.526   0.010  0.00  0.00    -0.068 C 
ATOM     11  H2  <0> d           1.004   1.903   0.003  0.00  0.00     0.028 H 
ATOM     12  H3  <0> d          -0.546   1.887  -0.873  0.00  0.00     0.028 H 
ATOM     13  H4  <0> d          -0.529   1.877   0.907  0.00  0.00     0.028 H 
ENDBRANCH   8  10
BRANCH   8  14
ATOM     14  C3  <0> d          -1.433  -0.534   0.013  0.00  0.00    -0.068 C 
ATOM     15  H6  <0> d          -1.960  -0.173  -0.870  0.00  0.00     0.028 H 
ATOM     16  H7  <0> d          -1.419  -1.623   0.007  0.00  0.00     0.028 H 
ATOM     17  H8  <0> d          -1.944  -0.182   0.910  0.00  0.00     0.028 H 
ENDBRANCH   8  14
ENDBRANCH   1   8
BRANCH   3  18
ATOM     18  N3  <0> d           0.924  -1.417  -4.693  0.00  0.00    -0.384 N 
ATOM     19  H10 <0> d           0.055  -1.311  -5.111  0.00  0.00     0.157 HD
ATOM     20  H11 <0> d           1.678  -1.734  -5.215  0.00  0.00     0.157 HD
ENDBRANCH   3  18
TORSDOF 4
