REMARK  9 active torsions:
REMARK  status: ('A' for Active; 'I' for Inactive)
REMARK    1  A    between atoms: C1_1  and  C2_2 
REMARK    2  A    between atoms: C2_2  and  C3_3 
REMARK    3  A    between atoms: C2_2  and  C4_4 
REMARK    4  A    between atoms: C2_2  and  C5_5 
REMARK    5  A    between atoms: C5_5  and  C6_6 
REMARK    6  A    between atoms: C6_6  and  C7_7 
REMARK    7  A    between atoms: C7_7  and  C8_8 
REMARK    8  A    between atoms: C8_8  and  C9_9 
REMARK    9  A    between atoms: C9_9  and  O1_10 
ROOT
ATOM      1  C2  <0> d           0.002  -0.004   0.002  0.00  0.00    -0.037 C 
ENDROOT
BRANCH   1   2
ATOM      2  C1  <0> d          -0.019   1.526   0.010  0.00  0.00    -0.069 C 
ATOM      3  H1  <0> d           1.004   1.903   0.003  0.00  0.00     0.028 H 
ATOM      4  H2  <0> d          -0.546   1.887  -0.873  0.00  0.00     0.028 H 
ATOM      5  H3  <0> d          -0.529   1.877   0.907  0.00  0.00     0.028 H 
ENDBRANCH   1   2
BRANCH   1   6
ATOM      6  C3  <0> d           0.742  -0.511   1.242  0.00  0.00    -0.069 C 
ATOM      7  H4  <0> d           0.232  -0.159   2.138  0.00  0.00     0.028 H 
ATOM      8  H5  <0> d           0.757  -1.601   1.236  0.00  0.00     0.028 H 
ATOM      9  H6  <0> d           1.765  -0.134   1.234  0.00  0.00     0.028 H 
ENDBRANCH   1   6
BRANCH   1  10
ATOM     10  C4  <0> d          -1.433  -0.534   0.013  0.00  0.00    -0.069 C 
ATOM     11  H7  <0> d          -1.960  -0.173  -0.870  0.00  0.00     0.028 H 
ATOM     12  H8  <0> d          -1.419  -1.623   0.007  0.00  0.00     0.028 H 
ATOM     13  H9  <0> d          -1.944  -0.182   0.910  0.00  0.00     0.028 H 
ENDBRANCH   1  10
BRANCH   1  14
ATOM     14  C5  <0> d           0.707  -0.490  -1.238  0.00  0.00     0.014 C 
ATOM     15  H10 <0> d           0.819  -1.550  -1.415  0.00  0.00     0.061 H 
BRANCH  14  16
ATOM     16  C6  <0> d           1.184   0.370  -2.098  0.00  0.00    -0.170 C 
BRANCH  16  17
ATOM     17  C7  <0> d           1.661   1.231  -2.958  0.00  0.00     0.009 C 
ATOM     18  H11 <0> d           2.673   1.595  -2.854  0.00  0.00     0.060 H 
BRANCH  17  19
ATOM     19  C8  <0> d           0.800   1.715  -4.096  0.00  0.00    -0.032 C 
ATOM     20  H12 <0> d           1.226   1.381  -5.042  0.00  0.00     0.038 H 
ATOM     21  H13 <0> d          -0.206   1.311  -3.988  0.00  0.00     0.038 H 
BRANCH  19  22
ATOM     22  C9  <0> d           0.740   3.244  -4.076  0.00  0.00     0.018 C 
ATOM     23  H14 <0> d           0.315   3.579  -3.130  0.00  0.00     0.074 H 
ATOM     24  H15 <0> d           1.747   3.648  -4.185  0.00  0.00     0.074 H 
BRANCH  22  25
ATOM     25  O1  <0> d          -0.076   3.703  -5.155  0.00  0.00    -0.401 OA
ATOM     26  H16 <0> d          -0.159   4.666  -5.204  0.00  0.00     0.209 HD
ENDBRANCH  22  25
ENDBRANCH  19  22
ENDBRANCH  17  19
ENDBRANCH  16  17
ENDBRANCH  14  16
ENDBRANCH   1  14
TORSDOF 9
