REMARK  0 active torsions:
REMARK  status: ('A' for Active; 'I' for Inactive)
ROOT
ATOM      1  C1  <0> d           3.442  -0.898  -0.036  0.00  0.00     0.038 A 
ATOM      2  C2  <0> d           2.359   0.077  -0.020  0.00  0.00     0.071 A 
ATOM      3  C3  <0> d           1.157  -0.664  -0.013  0.00  0.00     0.160 A 
ATOM      4  N1  <0> d           1.509  -1.980  -0.023  0.00  0.00    -0.261 N 
ATOM      5  H1  <0> d           0.871  -2.750  -0.021  0.00  0.00     0.191 HD
ATOM      6  N2  <0> d           2.904  -2.085  -0.037  0.00  0.00    -0.184 NA
ATOM      7  N3  <0> d           0.002  -0.004   0.002  0.00  0.00    -0.222 NA
ATOM      8  C4  <0> d          -0.016   1.311   0.009  0.00  0.00     0.090 A 
ATOM      9  N4  <0> d           1.087   2.039   0.003  0.00  0.00    -0.229 NA
ATOM     10  C5  <0> d           2.283   1.473  -0.012  0.00  0.00     0.142 A 
ATOM     11 Cl1  <0> d           3.724   2.441  -0.021  0.00  0.00    -0.061 Cl
ATOM     12  H2  <0> d           4.499  -0.677  -0.044  0.00  0.00     0.119 H 
ATOM     13  H3  <0> d          -0.970   1.816   0.017  0.00  0.00     0.146 H 
ENDROOT
TORSDOF 0
