REMARK  2 active torsions:
REMARK  status: ('A' for Active; 'I' for Inactive)
REMARK    1  A    between atoms: C1_1  and  C2_2 
REMARK    2  A    between atoms: C8_8  and  N3_12 
ROOT
ATOM      1  C2  <0> d           0.002  -0.004   0.002  0.00  0.00    -0.061 A 
ATOM      2  C3  <0> d           0.006  -0.685  -1.213  0.00  0.00    -0.075 A 
ATOM      3  C4  <0> d           0.023  -2.046  -1.258  0.00  0.00    -0.052 A 
ATOM      4  C5  <0> d           0.039  -2.779  -0.060  0.00  0.00     0.091 A 
ATOM      5  C6  <0> d           0.036  -2.083   1.174  0.00  0.00     0.023 A 
ATOM      6  C7  <0> d           0.022  -0.683   1.184  0.00  0.00    -0.063 A 
ATOM      7  C8  <0> d           0.052  -2.844   2.367  0.00  0.00     0.058 A 
ATOM      8  C9  <0> d           0.070  -4.225   2.238  0.00  0.00     0.050 A 
ATOM      9  N1  <0> d           0.072  -4.787   1.040  0.00  0.00    -0.160 NA
ATOM     10  N2  <0> d           0.057  -4.116  -0.055  0.00  0.00    -0.150 NA
ATOM     11  H4  <0> d          -0.006  -0.124  -2.136  0.00  0.00     0.084 H 
ATOM     12  H5  <0> d           0.025  -2.558  -2.208  0.00  0.00     0.087 H 
ATOM     13  H6  <0> d           0.024  -0.145   2.120  0.00  0.00     0.085 H 
ATOM     14  H7  <0> d           0.082  -4.846   3.122  0.00  0.00     0.121 H 
ENDROOT
BRANCH   1  15
ATOM     15  C1  <0> d          -0.018   1.503   0.010  0.00  0.00    -0.051 C 
ATOM     16  H1  <0> d           1.004   1.880   0.003  0.00  0.00     0.033 H 
ATOM     17  H2  <0> d          -0.545   1.864  -0.873  0.00  0.00     0.033 H 
ATOM     18  H3  <0> d          -0.529   1.854   0.907  0.00  0.00     0.033 H 
ENDBRANCH   1  15
BRANCH   7  19
ATOM     19  N3  <0> d           0.051  -2.235   3.613  0.00  0.00    -0.397 N 
ATOM     20  H8  <0> d           0.038  -1.267   3.680  0.00  0.00     0.156 HD
ATOM     21  H9  <0> d           0.062  -2.776   4.418  0.00  0.00     0.156 HD
ENDBRANCH   7  19
TORSDOF 2
