REMARK  2 active torsions:
REMARK  status: ('A' for Active; 'I' for Inactive)
REMARK    1  A    between atoms: C1_1  and  C2_2 
REMARK    2  A    between atoms: C3_3  and  C10_12 
ROOT
ATOM      1  C2  <0> d           0.002  -0.004   0.002  0.00  0.00     0.055 A 
ATOM      2  C3  <0> d           0.006  -0.688  -1.216  0.00  0.00     0.055 A 
ATOM      3  N1  <0> d           0.023  -2.001  -1.247  0.00  0.00    -0.250 NA
ATOM      4  C4  <0> d           0.039  -2.692  -0.102  0.00  0.00     0.086 A 
ATOM      5  C5  <0> d           0.058  -4.097  -0.102  0.00  0.00    -0.053 A 
ATOM      6  C6  <0> d           0.074  -4.771   1.080  0.00  0.00    -0.081 A 
ATOM      7  C7  <0> d           0.071  -4.088   2.296  0.00  0.00    -0.081 A 
ATOM      8  C8  <0> d           0.052  -2.728   2.334  0.00  0.00    -0.053 A 
ATOM      9  C9  <0> d           0.035  -1.997   1.134  0.00  0.00     0.086 A 
ATOM     10  N2  <0> d           0.022  -0.660   1.140  0.00  0.00    -0.250 NA
ATOM     11  H4  <0> d           0.061  -4.640  -1.035  0.00  0.00     0.087 H 
ATOM     12  H5  <0> d           0.089  -5.851   1.077  0.00  0.00     0.083 H 
ATOM     13  H6  <0> d           0.083  -4.647   3.220  0.00  0.00     0.083 H 
ATOM     14  H7  <0> d           0.049  -2.213   3.284  0.00  0.00     0.087 H 
ENDROOT
BRANCH   1  15
ATOM     15  C1  <0> d          -0.018   1.503   0.010  0.00  0.00    -0.034 C 
ATOM     16  H1  <0> d           1.004   1.880   0.003  0.00  0.00     0.035 H 
ATOM     17  H2  <0> d          -0.545   1.864  -0.873  0.00  0.00     0.035 H 
ATOM     18  H3  <0> d          -0.529   1.854   0.907  0.00  0.00     0.035 H 
ENDBRANCH   1  15
BRANCH   2  19
ATOM     19  C10 <0> d          -0.011   0.088  -2.507  0.00  0.00    -0.034 C 
ATOM     20  H8  <0> d           1.012   0.290  -2.823  0.00  0.00     0.035 H 
ATOM     21  H9  <0> d          -0.521  -0.494  -3.275  0.00  0.00     0.035 H 
ATOM     22  H10 <0> d          -0.538   1.031  -2.357  0.00  0.00     0.035 H 
ENDBRANCH   2  19
TORSDOF 2
