REMARK  2 active torsions:
REMARK  status: ('A' for Active; 'I' for Inactive)
REMARK    1  A    between atoms: C2_2  and  N4_9 
REMARK    2  A    between atoms: N4_9  and  C4_10 
ROOT
ATOM      1  N4  <0> d           2.268   3.953   0.001  0.00  0.00    -0.369 N 
ATOM      2  H3  <0> d           2.232   4.922   0.006  0.00  0.00     0.161 HD
ENDROOT
BRANCH   1   3
ATOM      3  C2  <0> d           1.103   3.222   0.008  0.00  0.00     0.148 A 
ATOM      4  C1  <0> d          -0.156   3.870   0.023  0.00  0.00     0.066 A 
ATOM      5  N3  <0> d          -1.246   3.153   0.030  0.00  0.00    -0.179 NA
ATOM      6  H2  <0> d          -0.213   4.948   0.030  0.00  0.00     0.123 H 
ATOM      7  N2  <0> d          -1.191   1.867   0.018  0.00  0.00    -0.227 N 
ATOM      8  C3  <0> d          -0.015   1.216   0.009  0.00  0.00     0.364 A 
ATOM      9  H1  <0> d          -2.016   1.357   0.019  0.00  0.00     0.194 HD
ATOM     10  N1  <0> d           1.136   1.895   0.001  0.00  0.00    -0.174 NA
ATOM     11  O1  <0> d           0.002  -0.004   0.002  0.00  0.00    -0.243 OA
ENDBRANCH   1   3
BRANCH   1  12
ATOM     12  C4  <0> d           3.562   3.268  -0.015  0.00  0.00     0.011 A 
ATOM     13  C6  <0> d           4.757   4.028  -0.595  0.00  0.00    -0.044 A 
ATOM     14  C5  <0> d           4.654   3.799   0.915  0.00  0.00    -0.044 A 
ATOM     15  H7  <0> d           5.503   3.452  -1.142  0.00  0.00     0.036 H 
ATOM     16  H8  <0> d           4.580   5.038  -0.964  0.00  0.00     0.036 H 
ATOM     17  H5  <0> d           4.410   4.659   1.539  0.00  0.00     0.036 H 
ATOM     18  H6  <0> d           5.333   3.072   1.361  0.00  0.00     0.036 H 
ATOM     19  H4  <0> d           3.522   2.191  -0.181  0.00  0.00     0.072 H 
ENDBRANCH   1  12
TORSDOF 2
