REMARK  7 active torsions:
REMARK  status: ('A' for Active; 'I' for Inactive)
REMARK    1  A    between atoms: C1_1  and  C2_2 
REMARK    2  A    between atoms: C2_2  and  C3_3 
REMARK    3  A    between atoms: C2_2  and  C4_4 
REMARK    4  A    between atoms: C4_4  and  C5_5 
REMARK    5  A    between atoms: C5_5  and  O1_6 
REMARK    6  A    between atoms: O1_6  and  C6_7 
REMARK    7  A    between atoms: C6_7  and  C7_8 
ROOT
ATOM      1  C7  <0> d          -0.976   1.477   6.083  0.00  0.00     0.034 C 
ATOM      2  C8  <0> d          -0.414   0.950   7.337  0.00  0.00     0.061 C 
ATOM      3  N1  <0> d           0.020   0.544   8.305  0.00  0.00    -0.197 NA
ATOM      4  H14 <0> d          -0.910   2.575   6.085  0.00  0.00     0.058 H 
ATOM      5  H15 <0> d          -2.030   1.173   5.997  0.00  0.00     0.058 H 
ENDROOT
BRANCH   1   6
ATOM      6  C6  <0> d          -0.187   0.921   4.897  0.00  0.00     0.031 C 
ATOM      7  H12 <0> d          -0.253  -0.177   4.895  0.00  0.00     0.075 H 
ATOM      8  H13 <0> d           0.867   1.225   4.982  0.00  0.00     0.075 H 
BRANCH   6   9
ATOM      9  O1  <0> d          -0.733   1.432   3.679  0.00  0.00    -0.390 OA
BRANCH   9  10
ATOM     10  C5  <0> d          -0.064   0.971   2.503  0.00  0.00     0.020 C 
ATOM     11  H10 <0> d          -0.127  -0.126   2.452  0.00  0.00     0.074 H 
ATOM     12  H11 <0> d           0.993   1.276   2.539  0.00  0.00     0.074 H 
BRANCH  10  13
ATOM     13  C4  <0> d          -0.729   1.579   1.267  0.00  0.00    -0.043 C 
ATOM     14  H8  <0> d          -0.666   2.676   1.318  0.00  0.00     0.036 H 
ATOM     15  H9  <0> d          -1.785   1.274   1.231  0.00  0.00     0.036 H 
BRANCH  13  16
ATOM     16  C2  <0> d          -0.013   1.086   0.008  0.00  0.00    -0.059 C 
ATOM     17  H4  <0> d           0.002  -0.014   0.002  0.00  0.00     0.038 H 
BRANCH  16  18
ATOM     18  C1  <0> d           1.423   1.615  -0.003  0.00  0.00    -0.073 C 
ATOM     19  H1  <0> d           1.955   1.251   0.888  0.00  0.00     0.028 H 
ATOM     20  H2  <0> d           1.408   2.715   0.003  0.00  0.00     0.028 H 
ATOM     21  H3  <0> d           1.938   1.261  -0.908  0.00  0.00     0.028 H 
ENDBRANCH  16  18
BRANCH  16  22
ATOM     22  C3  <0> d          -0.753   1.593  -1.232  0.00  0.00    -0.073 C 
ATOM     23  H5  <0> d          -1.785   1.212  -1.224  0.00  0.00     0.028 H 
ATOM     24  H6  <0> d          -0.238   1.238  -2.136  0.00  0.00     0.028 H 
ATOM     25  H7  <0> d          -0.768   2.693  -1.225  0.00  0.00     0.028 H 
ENDBRANCH  16  22
ENDBRANCH  13  16
ENDBRANCH  10  13
ENDBRANCH   9  10
ENDBRANCH   6   9
ENDBRANCH   1   6
TORSDOF 7
