REMARK  2 active torsions:
REMARK  status: ('A' for Active; 'I' for Inactive)
REMARK    1  A    between atoms: C1_1  and  C2_2 
REMARK    2  A    between atoms: C2_2  and  C3_3 
ROOT
ATOM      1  C3  <0> d           2.237   0.650   0.025  0.00  0.00     0.020 C 
ATOM      2  C4  <0> d           1.990   0.049   1.442  0.00  0.00    -0.051 C 
ATOM      3  C5  <0> d           0.508  -0.391   1.426  0.00  0.00    -0.060 C 
ATOM      4  C6  <0> d           0.002  -0.004   0.002  0.00  0.00    -0.047 C 
ATOM      5  H1  <0> d          -0.913  -0.494  -0.331  0.00  0.00     0.040 H 
ATOM      6  C7  <0> d           1.287  -0.261  -0.863  0.00  0.00    -0.048 C 
ATOM      7  C8  <0> d          -0.019   1.555   0.011  0.00  0.00    -0.005 C 
ATOM      8  C9  <0> d           1.446   1.966  -0.001  0.00  0.00     0.136 C 
ATOM      9  O1  <0> d           1.892   3.088  -0.005  0.00  0.00    -0.297 OA
ATOM     10  H7  <0> d           2.154   0.806   2.210  0.00  0.00     0.034 H 
ATOM     11  H8  <0> d           2.639  -0.810   1.610  0.00  0.00     0.034 H 
ATOM     12  H9  <0> d          -0.057   0.146   2.189  0.00  0.00     0.033 H 
ATOM     13  H10 <0> d           0.428  -1.467   1.579  0.00  0.00     0.033 H 
ATOM     14  H11 <0> d           1.593  -1.306  -0.842  0.00  0.00     0.035 H 
ATOM     15  H12 <0> d           1.175   0.108  -1.883  0.00  0.00     0.035 H 
ATOM     16  H13 <0> d          -0.511   1.887  -0.795  0.00  0.00     0.044 H 
ATOM     17  H14 <0> d          -0.509   1.923   0.912  0.00  0.00     0.044 H 
ENDROOT
BRANCH   1  18
ATOM     18  C2  <0> d           3.700   0.749  -0.412  0.00  0.00    -0.055 C 
ATOM     19  H5  <0> d           4.149  -0.244  -0.405  0.00  0.00     0.034 H 
ATOM     20  H6  <0> d           3.751   1.163  -1.419  0.00  0.00     0.034 H 
BRANCH  18  21
ATOM     21  C1  <0> d           4.460   1.660   0.554  0.00  0.00    -0.075 C 
ATOM     22  H2  <0> d           4.010   2.653   0.546  0.00  0.00     0.027 H 
ATOM     23  H3  <0> d           4.409   1.246   1.560  0.00  0.00     0.027 H 
ATOM     24  H4  <0> d           5.502   1.731   0.242  0.00  0.00     0.027 H 
ENDBRANCH  18  21
ENDBRANCH   1  18
TORSDOF 2
