REMARK  1 active torsions:
REMARK  status: ('A' for Active; 'I' for Inactive)
REMARK    1  A    between atoms: C6_6  and  N1_7 
ROOT
ATOM      1  C1  <0> d          -0.600  -2.313  -0.004  0.00  0.00    -0.055 A 
ATOM      2  C2  <0> d          -0.969  -0.997   0.006  0.00  0.00    -0.049 A 
ATOM      3  C3  <0> d           0.002  -0.004   0.002  0.00  0.00     0.109 A 
ATOM      4  C4  <0> d           1.365  -0.354  -0.013  0.00  0.00     0.111 A 
ATOM      5  C5  <0> d           1.731  -1.703  -0.024  0.00  0.00    -0.026 A 
ATOM      6  C6  <0> d           0.747  -2.673  -0.019  0.00  0.00     0.028 A 
ATOM      7  N2  <0> d           2.041   0.813  -0.013  0.00  0.00    -0.155 NA
ATOM      8  N3  <0> d           1.202   1.788   0.000  0.00  0.00    -0.196 N 
ATOM      9  N4  <0> d          -0.017   1.370   0.010  0.00  0.00    -0.155 NA
ATOM     10  H1  <0> d           1.565   2.826   0.003  0.00  0.00     0.213 HD
ATOM     11  H2  <0> d          -1.359  -3.081  -0.001  0.00  0.00     0.087 H 
ATOM     12  H3  <0> d          -2.015  -0.730   0.017  0.00  0.00     0.087 H 
ATOM     13  H4  <0> d           2.773  -1.984  -0.035  0.00  0.00     0.090 H 
ENDROOT
BRANCH   6  14
ATOM     14  N1  <0> d           1.105  -4.026  -0.030  0.00  0.00    -0.399 N 
ATOM     15  H5  <0> d           2.167  -4.314  -0.042  0.00  0.00     0.156 HD
ATOM     16  H6  <0> d           0.325  -4.801  -0.026  0.00  0.00     0.156 HD
ENDBRANCH   6  14
TORSDOF 1
