REMARK  4 active torsions:
REMARK  status: ('A' for Active; 'I' for Inactive)
REMARK    1  A    between atoms: C1_1  and  C2_2 
REMARK    2  A    between atoms: C2_2  and  C3_3 
REMARK    3  A    between atoms: C2_2  and  C4_4 
REMARK    4  A    between atoms: C7_7  and  O1_10 
ROOT
ATOM      1  C4  <0> d          -1.412  -0.526   0.013  0.00  0.00    -0.055 A 
ATOM      2  C5  <0> d          -2.258  -0.203   1.057  0.00  0.00    -0.074 A 
ATOM      3  C6  <0> d          -3.555  -0.681   1.070  0.00  0.00    -0.051 A 
ATOM      4  C7  <0> d          -4.007  -1.484   0.033  0.00  0.00     0.065 A 
ATOM      5  C8  <0> d          -3.156  -1.805  -1.015  0.00  0.00    -0.051 A 
ATOM      6  C9  <0> d          -1.862  -1.321  -1.025  0.00  0.00    -0.074 A 
ATOM      7  H8  <0> d          -1.906   0.421   1.864  0.00  0.00     0.084 H 
ATOM      8  H9  <0> d          -4.215  -0.429   1.886  0.00  0.00     0.087 H 
ATOM      9  H10 <0> d          -3.505  -2.430  -1.823  0.00  0.00     0.087 H 
ATOM     10  H11 <0> d          -1.200  -1.567  -1.842  0.00  0.00     0.084 H 
ENDROOT
BRANCH   1  11
ATOM     11  C2  <0> d           0.002  -0.004   0.002  0.00  0.00    -0.036 C 
ATOM     12  H4  <0> d           0.512  -0.356  -0.895  0.00  0.00     0.046 H 
BRANCH  11  13
ATOM     13  C1  <0> d          -0.019   1.526   0.010  0.00  0.00    -0.069 C 
ATOM     14  H1  <0> d           1.004   1.903   0.003  0.00  0.00     0.028 H 
ATOM     15  H2  <0> d          -0.546   1.887  -0.873  0.00  0.00     0.028 H 
ATOM     16  H3  <0> d          -0.529   1.877   0.907  0.00  0.00     0.028 H 
ENDBRANCH  11  13
BRANCH  11  17
ATOM     17  C3  <0> d           0.742  -0.511   1.242  0.00  0.00    -0.069 C 
ATOM     18  H5  <0> d           0.232  -0.159   2.138  0.00  0.00     0.028 H 
ATOM     19  H6  <0> d           0.757  -1.601   1.236  0.00  0.00     0.028 H 
ATOM     20  H7  <0> d           1.765  -0.134   1.234  0.00  0.00     0.028 H 
ENDBRANCH  11  17
ENDBRANCH   1  11
BRANCH   4  21
ATOM     21  O1  <0> d          -5.282  -1.955   0.043  0.00  0.00    -0.361 OA
ATOM     22  H12 <0> d          -5.919  -1.373  -0.393  0.00  0.00     0.217 HD
ENDBRANCH   4  21
TORSDOF 4
