REMARK  4 active torsions:
REMARK  status: ('A' for Active; 'I' for Inactive)
REMARK    1  A    between atoms: C1_1  and  C2_2 
REMARK       I    between atoms: C2_2  and  N1_4 
REMARK    2  A    between atoms: N1_4  and  C3_5 
REMARK    3  A    between atoms: C3_5  and  C4_6 
REMARK    4  A    between atoms: C3_5  and  C7_9 
ROOT
ATOM      1  C3  <0> d          -0.013   1.086   0.008  0.00  0.00     0.019 C 
ATOM      2  H5  <0> d           1.018   0.768   0.168  0.00  0.00     0.073 H 
ENDROOT
BRANCH   1   3
ATOM      3  N1  <0> d          -0.636   1.393   1.298  0.00  0.00    -0.356 N 
ATOM      4  C2  <0> d          -0.290   0.693   2.397  0.00  0.00     0.213 C 
ATOM      5  O1  <0> d           0.537  -0.191   2.317  0.00  0.00    -0.274 OA
ATOM      6  H4  <0> d          -1.297   2.099   1.361  0.00  0.00     0.162 HD
BRANCH   4   7
ATOM      7  C1  <0> d          -0.930   1.008   3.724  0.00  0.00    -0.003 C 
ATOM      8  H1  <0> d          -1.642   1.825   3.599  0.00  0.00     0.040 H 
ATOM      9  H2  <0> d          -1.452   0.126   4.094  0.00  0.00     0.040 H 
ATOM     10  H3  <0> d          -0.161   1.302   4.438  0.00  0.00     0.040 H 
ENDBRANCH   4   7
ENDBRANCH   1   3
BRANCH   1  11
ATOM     11  C4  <0> d          -0.029   2.334  -0.876  0.00  0.00    -0.034 A 
ATOM     12  C6  <0> d           0.703   3.575  -0.360  0.00  0.00    -0.059 A 
ATOM     13  C5  <0> d           1.292   2.764  -1.517  0.00  0.00    -0.059 A 
ATOM     14  H9  <0> d           0.272   4.548  -0.596  0.00  0.00     0.033 H 
ATOM     15  H10 <0> d           1.196   3.502   0.609  0.00  0.00     0.033 H 
ATOM     16  H7  <0> d           2.173   2.157  -1.309  0.00  0.00     0.033 H 
ATOM     17  H8  <0> d           1.248   3.204  -2.513  0.00  0.00     0.033 H 
ATOM     18  H6  <0> d          -0.942   2.491  -1.451  0.00  0.00     0.043 H 
ENDBRANCH   1  11
BRANCH   1  19
ATOM     19  C7  <0> d          -0.792  -0.037  -0.680  0.00  0.00    -0.034 A 
ATOM     20  C9  <0> d          -0.245  -0.564  -2.009  0.00  0.00    -0.059 A 
ATOM     21  C8  <0> d          -0.135  -1.417  -0.743  0.00  0.00    -0.059 A 
ATOM     22  H14 <0> d          -0.969  -0.874  -2.763  0.00  0.00     0.033 H 
ATOM     23  H15 <0> d           0.668  -0.111  -2.393  0.00  0.00     0.033 H 
ATOM     24  H12 <0> d           0.853  -1.526  -0.293  0.00  0.00     0.033 H 
ATOM     25  H13 <0> d          -0.785  -2.288  -0.664  0.00  0.00     0.033 H 
ATOM     26  H11 <0> d          -1.874   0.000  -0.561  0.00  0.00     0.043 H 
ENDBRANCH   1  19
TORSDOF 4
