REMARK  0 active torsions:
REMARK  status: ('A' for Active; 'I' for Inactive)
ROOT
ATOM      1  C1  <0> d          -0.017   1.377   0.010  0.00  0.00    -0.035 A 
ATOM      2  C2  <0> d           1.200   1.979   0.001  0.00  0.00    -0.024 A 
ATOM      3  S1  <0> d           2.265   0.681  -0.016  0.00  0.00     0.001 SA
ATOM      4  N1  <0> d           1.175  -0.588  -0.012  0.00  0.00    -0.200 NA
ATOM      5  C3  <0> d           0.002  -0.004   0.002  0.00  0.00     0.135 A 
ATOM      6 Cl1  <0> d          -1.468  -0.928   0.012  0.00  0.00    -0.062 Cl
ATOM      7  H1  <0> d          -0.938   1.940   0.026  0.00  0.00     0.089 H 
ATOM      8  H2  <0> d           1.428   3.034   0.004  0.00  0.00     0.097 H 
ENDROOT
TORSDOF 0
