REMARK  1 active torsions:
REMARK  status: ('A' for Active; 'I' for Inactive)
REMARK    1  A    between atoms: C1_1  and  C2_2 
ROOT
ATOM      1  C2  <0> d           1.900   2.967  -0.001  0.00  0.00     0.034 A 
ATOM      2  C3  <0> d           3.246   3.091  -0.013  0.00  0.00    -0.059 A 
ATOM      3  C4  <0> d           4.060   1.948  -0.027  0.00  0.00    -0.077 A 
ATOM      4  C5  <0> d           3.486   0.713  -0.028  0.00  0.00    -0.037 A 
ATOM      5  C6  <0> d           2.084   0.607  -0.015  0.00  0.00     0.152 A 
ATOM      6  N1  <0> d           1.319   1.739  -0.001  0.00  0.00    -0.219 N 
ATOM      7  N2  <0> d          -0.016   1.308   0.009  0.00  0.00    -0.159 NA
ATOM      8  C7  <0> d           0.002  -0.004   0.002  0.00  0.00     0.108 A 
ATOM      9  N3  <0> d           1.256  -0.432  -0.012  0.00  0.00    -0.221 NA
ATOM     10  H4  <0> d           3.696   4.073  -0.013  0.00  0.00     0.086 H 
ATOM     11  H5  <0> d           5.135   2.048  -0.037  0.00  0.00     0.083 H 
ATOM     12  H6  <0> d           4.101  -0.174  -0.038  0.00  0.00     0.089 H 
ATOM     13  H7  <0> d          -0.872  -0.638   0.007  0.00  0.00     0.149 H 
ENDROOT
BRANCH   1  14
ATOM     14  C1  <0> d           1.036   4.202   0.014  0.00  0.00    -0.035 C 
ATOM     15  H1  <0> d           0.818   4.505  -1.010  0.00  0.00     0.035 H 
ATOM     16  H2  <0> d           0.104   3.987   0.536  0.00  0.00     0.035 H 
ATOM     17  H3  <0> d           1.563   5.007   0.527  0.00  0.00     0.035 H 
ENDBRANCH   1  14
TORSDOF 1
