REMARK  3 active torsions:
REMARK  status: ('A' for Active; 'I' for Inactive)
REMARK    1  A    between atoms: C1_1  and  O1_2 
REMARK    2  A    between atoms: O1_2  and  C2_3 
REMARK    3  A    between atoms: C7_8  and  O2_9 
ROOT
ATOM      1  C2  <0> d           1.845   1.831  -1.208  0.00  0.00     0.102 A 
ATOM      2  C3  <0> d           3.102   2.412  -1.213  0.00  0.00    -0.048 A 
ATOM      3  C4  <0> d           3.746   2.698  -0.020  0.00  0.00    -0.079 A 
ATOM      4  C5  <0> d           3.141   2.406   1.184  0.00  0.00    -0.060 A 
ATOM      5  C6  <0> d           1.870   1.826   1.205  0.00  0.00     0.080 A 
ATOM      6  C7  <0> d           1.222   1.532  -0.001  0.00  0.00     0.119 A 
ATOM      7  C8  <0> d           1.236   1.527   2.454  0.00  0.00     0.102 C 
ATOM      8  N1  <0> d           0.733   1.290   3.444  0.00  0.00    -0.191 NA
ATOM      9  H4  <0> d           3.584   2.644  -2.152  0.00  0.00     0.087 H 
ATOM     10  H5  <0> d           4.726   3.150  -0.034  0.00  0.00     0.083 H 
ATOM     11  H6  <0> d           3.648   2.631   2.111  0.00  0.00     0.086 H 
ENDROOT
BRANCH   6  12
ATOM     12  O2  <0> d          -0.011   0.963   0.007  0.00  0.00    -0.357 OA
ATOM     13  H7  <0> d           0.002  -0.004   0.002  0.00  0.00     0.218 HD
ENDBRANCH   6  12
BRANCH   1  14
ATOM     14  O1  <0> d           1.220   1.553  -2.384  0.00  0.00    -0.353 OA
BRANCH  14  15
ATOM     15  C1  <0> d           1.918   1.887  -3.585  0.00  0.00     0.010 C 
ATOM     16  H1  <0> d           2.115   2.959  -3.604  0.00  0.00     0.066 H 
ATOM     17  H2  <0> d           2.862   1.344  -3.619  0.00  0.00     0.066 H 
ATOM     18  H3  <0> d           1.310   1.614  -4.447  0.00  0.00     0.066 H 
ENDBRANCH  14  15
ENDBRANCH   1  14
TORSDOF 3
