REMARK  9 active torsions:
REMARK  status: ('A' for Active; 'I' for Inactive)
REMARK    1  A    between atoms: C1_1  and  C2_2 
REMARK    2  A    between atoms: C2_2  and  C3_3 
REMARK    3  A    between atoms: C3_3  and  C4_4 
REMARK    4  A    between atoms: C4_4  and  O1_5 
REMARK    5  A    between atoms: O1_5  and  C5_6 
REMARK    6  A    between atoms: C5_6  and  C6_7 
REMARK    7  A    between atoms: C6_7  and  C7_9 
REMARK    8  A    between atoms: C6_7  and  O2_11 
REMARK    9  A    between atoms: C7_9  and  C8_10 
ROOT
ATOM      1  O1  <0> d          -0.704   1.559  -1.150  0.00  0.00    -0.389 OA
ENDROOT
BRANCH   1   2
ATOM      2  C4  <0> d          -0.114   1.152  -2.386  0.00  0.00     0.020 C 
ATOM      3  H9  <0> d           0.907   1.531  -2.443  0.00  0.00     0.074 H 
ATOM      4  H10 <0> d          -0.101   0.064  -2.442  0.00  0.00     0.074 H 
BRANCH   2   5
ATOM      5  C3  <0> d          -0.932   1.713  -3.551  0.00  0.00    -0.045 C 
ATOM      6  H7  <0> d          -1.952   1.334  -3.493  0.00  0.00     0.036 H 
ATOM      7  H8  <0> d          -0.945   2.801  -3.495  0.00  0.00     0.036 H 
BRANCH   5   8
ATOM      8  C2  <0> d          -0.300   1.277  -4.874  0.00  0.00    -0.067 C 
ATOM      9  H5  <0> d           0.721   1.656  -4.932  0.00  0.00     0.032 H 
ATOM     10  H6  <0> d          -0.287   0.189  -4.930  0.00  0.00     0.032 H 
BRANCH   8  11
ATOM     11  C1  <0> d          -1.118   1.838  -6.039  0.00  0.00    -0.076 C 
ATOM     12  H2  <0> d          -2.139   1.459  -5.982  0.00  0.00     0.027 H 
ATOM     13  H3  <0> d          -1.131   2.927  -5.983  0.00  0.00     0.027 H 
ATOM     14  H4  <0> d          -0.668   1.528  -6.982  0.00  0.00     0.027 H 
ENDBRANCH   8  11
ENDBRANCH   5   8
ENDBRANCH   2   5
ENDBRANCH   1   2
BRANCH   1  15
ATOM     15  C5  <0> d          -0.013   1.086   0.008  0.00  0.00     0.043 C 
ATOM     16  H11 <0> d           0.002  -0.004   0.002  0.00  0.00     0.078 H 
ATOM     17  H12 <0> d           1.010   1.463   0.000  0.00  0.00     0.078 H 
BRANCH  15  18
ATOM     18  C6  <0> d          -0.729   1.579   1.267  0.00  0.00     0.056 C 
ATOM     19  H1  <0> d          -1.776   1.277   1.232  0.00  0.00     0.086 H 
BRANCH  18  20
ATOM     20  C7  <0> d          -0.064   0.971   2.503  0.00  0.00    -0.043 C 
ATOM     21  H13 <0> d          -0.047  -0.115   2.410  0.00  0.00     0.036 H 
ATOM     22  H14 <0> d           0.957   1.344   2.587  0.00  0.00     0.036 H 
BRANCH  20  23
ATOM     23  C8  <0> d          -0.855   1.364   3.753  0.00  0.00    -0.074 C 
ATOM     24  H15 <0> d          -0.871   2.450   3.846  0.00  0.00     0.027 H 
ATOM     25  H16 <0> d          -1.875   0.991   3.669  0.00  0.00     0.027 H 
ATOM     26  H17 <0> d          -0.381   0.931   4.634  0.00  0.00     0.027 H 
ENDBRANCH  20  23
ENDBRANCH  18  20
BRANCH  18  27
ATOM     27  O2  <0> d          -0.647   3.004   1.334  0.00  0.00    -0.393 OA
ATOM     28  H18 <0> d           0.258   3.345   1.368  0.00  0.00     0.210 HD
ENDBRANCH  18  27
ENDBRANCH  15  18
ENDBRANCH   1  15
TORSDOF 9
