REMARK  1 active torsions:
REMARK  status: ('A' for Active; 'I' for Inactive)
REMARK    1  A    between atoms: C3_3  and  C6_8 
ROOT
ATOM      1  C1  <0> d           1.218   3.213   0.016  0.00  0.00    -0.045 C 
ATOM      2  C2  <0> d          -0.133   3.809  -0.393  0.00  0.00    -0.028 C 
ATOM      3  C3  <0> d          -1.234   3.082   0.392  0.00  0.00     0.127 C 
ATOM      4  H1  <0> d          -1.047   3.180   1.462  0.00  0.00     0.101 H 
ATOM      5  O1  <0> d          -1.211   1.701   0.017  0.00  0.00    -0.347 OA
ATOM      6  C4  <0> d          -0.013   1.076   0.008  0.00  0.00     0.010 C 
ATOM      7  C5  <0> d           1.129   1.712   0.001  0.00  0.00    -0.082 C 
ATOM      8  H2  <0> d           1.475   3.551   1.020  0.00  0.00     0.039 H 
ATOM      9  H3  <0> d           1.987   3.539  -0.685  0.00  0.00     0.039 H 
ATOM     10  H4  <0> d          -0.153   4.872  -0.157  0.00  0.00     0.038 H 
ATOM     11  H5  <0> d          -0.289   3.667  -1.463  0.00  0.00     0.038 H 
ATOM     12  H6  <0> d           0.002  -0.004   0.002  0.00  0.00     0.122 H 
ATOM     13  H7  <0> d           2.044   1.137  -0.018  0.00  0.00     0.079 H 
ENDROOT
BRANCH   3  14
ATOM     14  C6  <0> d          -2.576   3.677   0.054  0.00  0.00     0.203 C 
ATOM     15  O2  <0> d          -3.407   3.010  -0.515  0.00  0.00    -0.646 OA
ATOM     16  O3  <0> d          -2.850   4.949   0.386  0.00  0.00    -0.646 OA
ENDBRANCH   3  14
TORSDOF 1
