REMARK  2 active torsions:
REMARK  status: ('A' for Active; 'I' for Inactive)
REMARK    1  A    between atoms: C1_1  and  C2_2 
REMARK    2  A    between atoms: C2_2  and  C3_4 
ROOT
ATOM      1  C3  <0> d          -0.000  -0.736  -1.281  0.00  0.00     0.074 C 
ATOM      2  N1  <0> d          -0.018  -0.176  -2.437  0.00  0.00    -0.290 NA
ATOM      3  C4  <0> d          -0.012  -1.154  -3.531  0.00  0.00     0.016 C 
ATOM      4  C5  <0> d          -0.405  -2.498  -2.874  0.00  0.00    -0.043 C 
ATOM      5  C6  <0> d           0.025  -2.243  -1.408  0.00  0.00    -0.020 C 
ATOM      6  H4  <0> d          -0.743  -0.876  -4.291  0.00  0.00     0.067 H 
ATOM      7  H5  <0> d           0.983  -1.224  -3.970  0.00  0.00     0.067 H 
ATOM      8  H6  <0> d          -1.479  -2.672  -2.948  0.00  0.00     0.036 H 
ATOM      9  H7  <0> d           0.156  -3.326  -3.308  0.00  0.00     0.036 H 
ATOM     10  H8  <0> d           0.946  -2.579  -1.208  0.00  0.00     0.042 H 
ATOM     11  H9  <0> d          -0.686  -2.697  -0.717  0.00  0.00     0.042 H 
ENDROOT
BRANCH   1  12
ATOM     12  C2  <0> d           0.002  -0.004   0.002  0.00  0.00     0.169 C 
ATOM     13  O1  <0> d           0.020  -0.614   1.045  0.00  0.00    -0.292 OA
BRANCH  12  14
ATOM     14  C1  <0> d          -0.018   1.503   0.010  0.00  0.00    -0.015 C 
ATOM     15  H1  <0> d           0.920   1.849   0.003  0.00  0.00     0.038 H 
ATOM     16  H2  <0> d          -0.545   1.864  -0.873  0.00  0.00     0.038 H 
ATOM     17  H3  <0> d          -0.529   1.854   0.907  0.00  0.00     0.038 H 
ENDBRANCH  12  14
ENDBRANCH   1  12
TORSDOF 2
