REMARK  1 active torsions:
REMARK  status: ('A' for Active; 'I' for Inactive)
REMARK    1  A    between atoms: C1_1  and  C2_2 
ROOT
ATOM      1  C2  <0> d          -0.055   4.198   0.024  0.00  0.00    -0.060 A 
ATOM      2  C3  <0> d           1.155   3.525   0.009  0.00  0.00    -0.076 A 
ATOM      3  C4  <0> d           1.181   2.146   0.002  0.00  0.00    -0.061 A 
ATOM      4  C5  <0> d          -0.017   1.428   0.010  0.00  0.00     0.066 A 
ATOM      5  C6  <0> d          -1.235   2.113   0.019  0.00  0.00     0.055 A 
ATOM      6  C7  <0> d          -1.245   3.495   0.031  0.00  0.00    -0.055 A 
ATOM      7 Cl1  <0> d          -2.730   1.232   0.022  0.00  0.00    -0.083 Cl
ATOM      8  C8  <0> d           0.002  -0.004   0.002  0.00  0.00     0.101 C 
ATOM      9  N1  <0> d           0.018  -1.140  -0.004  0.00  0.00    -0.191 NA
ATOM     10  H4  <0> d           2.080   4.081   0.003  0.00  0.00     0.084 H 
ATOM     11  H5  <0> d           2.125   1.623  -0.009  0.00  0.00     0.085 H 
ATOM     12  H6  <0> d          -2.185   4.026   0.042  0.00  0.00     0.086 H 
ENDROOT
BRANCH   1  13
ATOM     13  C1  <0> d          -0.074   5.705   0.032  0.00  0.00    -0.051 C 
ATOM     14  H1  <0> d          -0.088   6.073  -0.994  0.00  0.00     0.033 H 
ATOM     15  H2  <0> d          -0.964   6.054   0.556  0.00  0.00     0.033 H 
ATOM     16  H3  <0> d           0.816   6.077   0.539  0.00  0.00     0.033 H 
ENDBRANCH   1  13
TORSDOF 1
