REMARK  2 active torsions:
REMARK  status: ('A' for Active; 'I' for Inactive)
REMARK    1  A    between atoms: C1_1  and  N1_2 
REMARK    2  A    between atoms: N1_2  and  C2_3 
REMARK       I    between atoms: N1_2  and  C3_4 
REMARK       I    between atoms: C3_4  and  N2_6 
ROOT
ATOM      1  N1  <0> d          -1.150  -0.694   0.111  0.00  0.00    -0.343 N 
ATOM      2  C3  <0> d          -0.001  -0.008  -0.040  0.00  0.00     0.319 C 
ATOM      3  O1  <0> d           1.067  -0.576   0.081  0.00  0.00    -0.247 OA
ATOM      4  N2  <0> d          -0.034   1.309  -0.325  0.00  0.00    -0.334 N 
ATOM      5  C4  <0> d          -1.204   1.902  -0.988  0.00  0.00    -0.001 C 
ATOM      6  C5  <0> d          -1.696   3.087  -0.144  0.00  0.00    -0.050 C 
ATOM      7  C6  <0> d          -0.538   4.063   0.079  0.00  0.00    -0.062 C 
ATOM      8  C7  <0> d           0.585   3.360   0.845  0.00  0.00    -0.050 C 
ATOM      9  C8  <0> d           1.100   2.178   0.017  0.00  0.00    -0.001 C 
ATOM     10  H7  <0> d          -0.922   2.250  -1.982  0.00  0.00     0.064 H 
ATOM     11  H8  <0> d          -1.994   1.156  -1.069  0.00  0.00     0.064 H 
ATOM     12  H9  <0> d          -2.057   2.726   0.819  0.00  0.00     0.035 H 
ATOM     13  H10 <0> d          -2.505   3.596  -0.668  0.00  0.00     0.035 H 
ATOM     14  H11 <0> d          -0.890   4.919   0.655  0.00  0.00     0.033 H 
ATOM     15  H12 <0> d          -0.161   4.405  -0.885  0.00  0.00     0.033 H 
ATOM     16  H13 <0> d           0.202   2.996   1.799  0.00  0.00     0.035 H 
ATOM     17  H14 <0> d           1.399   4.062   1.024  0.00  0.00     0.035 H 
ATOM     18  H15 <0> d           1.830   1.615   0.599  0.00  0.00     0.064 H 
ATOM     19  H16 <0> d           1.567   2.546  -0.897  0.00  0.00     0.064 H 
ENDROOT
BRANCH   1  20
ATOM     20  C1  <0> d          -1.120  -2.151   0.259  0.00  0.00    -0.015 C 
ATOM     21  H1  <0> d          -1.041  -2.408   1.315  0.00  0.00     0.056 H 
ATOM     22  H2  <0> d          -2.035  -2.578  -0.151  0.00  0.00     0.056 H 
ATOM     23  H3  <0> d          -0.260  -2.553  -0.278  0.00  0.00     0.056 H 
ENDBRANCH   1  20
BRANCH   1  24
ATOM     24  C2  <0> d          -2.431   0.017   0.127  0.00  0.00    -0.015 C 
ATOM     25  H4  <0> d          -2.845   0.043  -0.881  0.00  0.00     0.056 H 
ATOM     26  H5  <0> d          -3.125  -0.499   0.792  0.00  0.00     0.056 H 
ATOM     27  H6  <0> d          -2.277   1.035   0.483  0.00  0.00     0.056 H 
ENDBRANCH   1  24
TORSDOF 2
