REMARK  3 active torsions:
REMARK  status: ('A' for Active; 'I' for Inactive)
REMARK    1  A    between atoms: C1_1  and  C2_2 
REMARK    2  A    between atoms: C2_2  and  C3_3 
REMARK    3  A    between atoms: C2_2  and  C4_4 
ROOT
ATOM      1  C4  <0> d           1.201  -0.358   0.909  0.00  0.00    -0.029 A 
ATOM      2  C5  <0> d           0.002  -0.004   0.002  0.00  0.00    -0.054 C 
ATOM      3  C6  <0> d          -0.019   1.545   0.011  0.00  0.00    -0.044 C 
ATOM      4  C7  <0> d           1.462   1.907  -0.002  0.00  0.00    -0.084 C 
ATOM      5  C8  <0> d           2.039   2.890  -0.646  0.00  0.00    -0.119 C 
ATOM      6  C9  <0> d           2.122   0.875   0.897  0.00  0.00    -0.025 A 
ATOM      7  H1  <0> d           3.170   1.155   0.714  0.00  0.00     0.048 H 
ATOM      8  C10 <0> d           1.404   0.465   2.183  0.00  0.00    -0.050 A 
ATOM      9  H9  <0> d           0.171  -0.414  -1.005  0.00  0.00     0.034 H 
ATOM     10  H10 <0> d          -0.917  -0.436   0.424  0.00  0.00     0.034 H 
ATOM     11  H11 <0> d          -0.551   1.909  -0.881  0.00  0.00     0.039 H 
ATOM     12  H12 <0> d          -0.534   1.900   0.915  0.00  0.00     0.039 H 
ATOM     13  H13 <0> d           3.126   3.038  -0.566  0.00  0.00     0.067 H 
ATOM     14  H14 <0> d           1.437   3.569  -1.268  0.00  0.00     0.067 H 
ATOM     15  H15 <0> d           0.435   0.863   2.521  0.00  0.00     0.035 H 
ATOM     16  H16 <0> d           1.831  -0.175   2.969  0.00  0.00     0.035 H 
ENDROOT
BRANCH   1  17
ATOM     17  C2  <0> d           1.763  -1.778   0.817  0.00  0.00    -0.053 C 
ATOM     18  H5  <0> d           2.418  -1.970   1.679  0.00  0.00     0.040 H 
BRANCH  17  19
ATOM     19  C1  <0> d           0.610  -2.783   0.818  0.00  0.00    -0.072 C 
ATOM     20  H2  <0> d           0.032  -2.678   1.748  0.00  0.00     0.028 H 
ATOM     21  H3  <0> d           1.014  -3.804   0.751  0.00  0.00     0.028 H 
ATOM     22  H4  <0> d          -0.045  -2.591  -0.045  0.00  0.00     0.028 H 
ENDBRANCH  17  19
BRANCH  17  23
ATOM     23  C3  <0> d           2.567  -1.925  -0.477  0.00  0.00    -0.072 C 
ATOM     24  H6  <0> d           3.396  -1.202  -0.478  0.00  0.00     0.028 H 
ATOM     25  H7  <0> d           1.912  -1.733  -1.340  0.00  0.00     0.028 H 
ATOM     26  H8  <0> d           2.970  -2.946  -0.543  0.00  0.00     0.028 H 
ENDBRANCH  17  23
ENDBRANCH   1  17
TORSDOF 3
