REMARK  5 active torsions:
REMARK  status: ('A' for Active; 'I' for Inactive)
REMARK    1  A    between atoms: C1_1  and  C2_2 
REMARK    2  A    between atoms: C2_2  and  O1_3 
REMARK    3  A    between atoms: O1_3  and  C3_4 
REMARK    4  A    between atoms: C3_4  and  C4_6 
REMARK    5  A    between atoms: C4_6  and  O3_11 
ROOT
ATOM      1  C4  <0> d          -2.881  -2.427   0.017  0.00  0.00     0.145 C 
ATOM      2  C5  <0> d          -3.374  -2.593   1.469  0.00  0.00    -0.027 C 
ATOM      3  C6  <0> d          -4.170  -3.922   1.450  0.00  0.00    -0.062 C 
ATOM      4  C7  <0> d          -3.332  -4.808   0.495  0.00  0.00    -0.062 C 
ATOM      5  C8  <0> d          -2.854  -3.835  -0.602  0.00  0.00    -0.027 C 
ATOM      6  H6  <0> d          -2.529  -2.663   2.153  0.00  0.00     0.038 H 
ATOM      7  H7  <0> d          -4.024  -1.763   1.748  0.00  0.00     0.038 H 
ATOM      8  H8  <0> d          -4.212  -4.360   2.447  0.00  0.00     0.033 H 
ATOM      9  H9  <0> d          -5.172  -3.766   1.052  0.00  0.00     0.033 H 
ATOM     10  H10 <0> d          -2.479  -5.237   1.023  0.00  0.00     0.033 H 
ATOM     11  H11 <0> d          -3.950  -5.595   0.065  0.00  0.00     0.033 H 
ATOM     12  H12 <0> d          -3.526  -3.880  -1.459  0.00  0.00     0.038 H 
ATOM     13  H13 <0> d          -1.839  -4.088  -0.910  0.00  0.00     0.038 H 
ENDROOT
BRANCH   1  14
ATOM     14  C3  <0> d          -1.496  -1.832   0.006  0.00  0.00     0.293 C 
ATOM     15  O2  <0> d          -0.528  -2.555  -0.007  0.00  0.00    -0.262 OA
BRANCH  14  16
ATOM     16  O1  <0> d          -1.339  -0.499   0.012  0.00  0.00    -0.319 OA
BRANCH  16  17
ATOM     17  C2  <0> d           0.002  -0.004   0.002  0.00  0.00     0.026 C 
ATOM     18  H4  <0> d           0.512  -0.356  -0.895  0.00  0.00     0.074 H 
ATOM     19  H5  <0> d           0.529  -0.365   0.885  0.00  0.00     0.074 H 
BRANCH  17  20
ATOM     20  C1  <0> d          -0.019   1.526   0.010  0.00  0.00    -0.056 C 
ATOM     21  H1  <0> d           1.004   1.903   0.003  0.00  0.00     0.030 H 
ATOM     22  H2  <0> d          -0.546   1.887  -0.873  0.00  0.00     0.030 H 
ATOM     23  H3  <0> d          -0.529   1.877   0.907  0.00  0.00     0.030 H 
ENDBRANCH  17  20
ENDBRANCH  16  17
ENDBRANCH  14  16
ENDBRANCH   1  14
BRANCH   1  24
ATOM     24  O3  <0> d          -3.779  -1.588  -0.714  0.00  0.00    -0.380 OA
ATOM     25  H14 <0> d          -3.848  -0.689  -0.365  0.00  0.00     0.211 HD
ENDBRANCH   1  24
TORSDOF 5
