REMARK  5 active torsions:
REMARK  status: ('A' for Active; 'I' for Inactive)
REMARK    1  A    between atoms: C1_1  and  C2_2 
REMARK    2  A    between atoms: C2_2  and  C3_3 
REMARK    3  A    between atoms: C2_2  and  C4_4 
REMARK    4  A    between atoms: C4_4  and  C5_6 
REMARK    5  A    between atoms: N2_10  and  C8_11 
ROOT
ATOM      1  C4  <0> d          -1.412  -0.526   0.013  0.00  0.00     0.198 C 
ATOM      2  O1  <0> d          -2.306   0.155   0.469  0.00  0.00    -0.289 OA
ENDROOT
BRANCH   1   3
ATOM      3  C2  <0> d           0.002  -0.004   0.002  0.00  0.00     0.005 C 
ATOM      4  H4  <0> d           0.512  -0.356  -0.895  0.00  0.00     0.051 H 
BRANCH   3   5
ATOM      5  C1  <0> d          -0.019   1.526   0.010  0.00  0.00    -0.066 C 
ATOM      6  H1  <0> d           1.004   1.903   0.003  0.00  0.00     0.028 H 
ATOM      7  H2  <0> d          -0.546   1.887  -0.873  0.00  0.00     0.028 H 
ATOM      8  H3  <0> d          -0.529   1.877   0.907  0.00  0.00     0.028 H 
ENDBRANCH   3   5
BRANCH   3   9
ATOM      9  C3  <0> d           0.742  -0.511   1.242  0.00  0.00    -0.066 C 
ATOM     10  H5  <0> d           0.232  -0.159   2.138  0.00  0.00     0.028 H 
ATOM     11  H6  <0> d           0.757  -1.601   1.236  0.00  0.00     0.028 H 
ATOM     12  H7  <0> d           1.765  -0.134   1.234  0.00  0.00     0.028 H 
ENDBRANCH   3   9
ENDBRANCH   1   3
BRANCH   1  13
ATOM     13  C5  <0> d          -1.706  -1.856  -0.528  0.00  0.00     0.175 A 
ATOM     14  N2  <0> d          -2.940  -2.446  -0.579  0.00  0.00    -0.342 N 
ATOM     15  C7  <0> d          -2.777  -3.660  -1.151  0.00  0.00    -0.002 A 
ATOM     16  C6  <0> d          -1.455  -3.798  -1.431  0.00  0.00     0.019 A 
ATOM     17  H9  <0> d          -3.552  -4.387  -1.345  0.00  0.00     0.113 H 
ATOM     18  N1  <0> d          -0.827  -2.692  -1.044  0.00  0.00    -0.238 NA
ATOM     19  H8  <0> d          -0.992  -4.659  -1.889  0.00  0.00     0.117 H 
BRANCH  14  20
ATOM     20  C8  <0> d          -4.201  -1.869  -0.105  0.00  0.00    -0.013 C 
ATOM     21  H10 <0> d          -4.673  -1.314  -0.916  0.00  0.00     0.057 H 
ATOM     22  H11 <0> d          -4.866  -2.669   0.222  0.00  0.00     0.057 H 
ATOM     23  H12 <0> d          -4.003  -1.197   0.729  0.00  0.00     0.057 H 
ENDBRANCH  14  20
ENDBRANCH   1  13
TORSDOF 5
