REMARK  9 active torsions:
REMARK  status: ('A' for Active; 'I' for Inactive)
REMARK    1  A    between atoms: C1_1  and  C2_2 
REMARK    2  A    between atoms: C2_2  and  C3_3 
REMARK    3  A    between atoms: C3_3  and  C4_4 
REMARK    4  A    between atoms: C4_4  and  C5_5 
REMARK    5  A    between atoms: C5_5  and  C6_7 
REMARK    6  A    between atoms: C5_5  and  C7_9 
REMARK    7  A    between atoms: C6_7  and  O1_8 
REMARK    8  A    between atoms: C7_9  and  C8_11 
REMARK    9  A    between atoms: C7_9  and  O2_12 
ROOT
ATOM      1  C5  <0> d          -1.478  -0.280   0.113  0.00  0.00    -0.009 C 
ATOM      2  H1  <0> d          -1.981   0.287   0.896  0.00  0.00     0.047 H 
ENDROOT
BRANCH   1   3
ATOM      3  C4  <0> d          -1.540  -1.772   0.445  0.00  0.00    -0.058 C 
ATOM      4  H10 <0> d          -2.577  -2.107   0.423  0.00  0.00     0.033 H 
ATOM      5  H11 <0> d          -0.962  -2.333  -0.290  0.00  0.00     0.033 H 
BRANCH   3   6
ATOM      6  C3  <0> d          -0.957  -2.009   1.839  0.00  0.00    -0.065 C 
ATOM      7  H8  <0> d           0.081  -1.675   1.861  0.00  0.00     0.033 H 
ATOM      8  H9  <0> d          -1.534  -1.449   2.575  0.00  0.00     0.033 H 
BRANCH   6   9
ATOM      9  C2  <0> d          -1.018  -3.501   2.172  0.00  0.00    -0.069 C 
ATOM     10  H6  <0> d          -2.055  -3.836   2.150  0.00  0.00     0.032 H 
ATOM     11  H7  <0> d          -0.441  -4.061   1.436  0.00  0.00     0.032 H 
BRANCH   9  12
ATOM     12  C1  <0> d          -0.435  -3.738   3.566  0.00  0.00    -0.077 C 
ATOM     13  H3  <0> d           0.602  -3.403   3.588  0.00  0.00     0.027 H 
ATOM     14  H4  <0> d          -1.013  -3.178   4.301  0.00  0.00     0.027 H 
ATOM     15  H5  <0> d          -0.479  -4.801   3.803  0.00  0.00     0.027 H 
ENDBRANCH   9  12
ENDBRANCH   6   9
ENDBRANCH   3   6
ENDBRANCH   1   3
BRANCH   1  16
ATOM     16  C6  <0> d          -0.016   0.162   0.020  0.00  0.00     0.022 C 
ATOM     17  H12 <0> d           0.466  -0.350  -0.813  0.00  0.00     0.074 H 
ATOM     18  H13 <0> d           0.498  -0.089   0.948  0.00  0.00     0.074 H 
BRANCH  16  19
ATOM     19  O1  <0> d           0.042   1.574  -0.191  0.00  0.00    -0.400 OA
ATOM     20  H14 <0> d           0.941   1.924  -0.259  0.00  0.00     0.209 HD
ENDBRANCH  16  19
ENDBRANCH   1  16
BRANCH   1  21
ATOM     21  C7  <0> d          -2.173  -0.027  -1.227  0.00  0.00     0.037 C 
ATOM     22  H2  <0> d          -2.047   1.018  -1.510  0.00  0.00     0.083 H 
BRANCH  21  23
ATOM     23  C8  <0> d          -3.664  -0.343  -1.095  0.00  0.00    -0.052 C 
ATOM     24  H15 <0> d          -4.083   0.219  -0.260  0.00  0.00     0.030 H 
ATOM     25  H16 <0> d          -4.178  -0.062  -2.015  0.00  0.00     0.030 H 
ATOM     26  H17 <0> d          -3.795  -1.410  -0.917  0.00  0.00     0.030 H 
ENDBRANCH  21  23
BRANCH  21  27
ATOM     27  O2  <0> d          -1.595  -0.865  -2.229  0.00  0.00    -0.396 OA
ATOM     28  H18 <0> d          -1.671  -1.811  -2.043  0.00  0.00     0.210 HD
ENDBRANCH  21  27
ENDBRANCH   1  21
TORSDOF 9
