REMARK  2 active torsions:
REMARK  status: ('A' for Active; 'I' for Inactive)
REMARK    1  A    between atoms: C3_3  and  C6_8 
REMARK    2  A    between atoms: C6_8  and  O1_9 
ROOT
ATOM      1  C1  <0> d          -0.013   1.076   0.008  0.00  0.00    -0.065 A 
ATOM      2  C2  <0> d          -1.218   1.762   0.017  0.00  0.00    -0.070 A 
ATOM      3  C3  <0> d          -1.190   3.147   0.030  0.00  0.00     0.006 A 
ATOM      4  C4  <0> d           0.033   3.796   0.021  0.00  0.00     0.134 A 
ATOM      5  N1  <0> d           1.160   3.110   0.007  0.00  0.00    -0.248 NA
ATOM      6  C5  <0> d           1.169   1.791   0.001  0.00  0.00     0.004 A 
ATOM      7 Cl1  <0> d           0.084   5.531   0.028  0.00  0.00    -0.062 Cl
ATOM      8  H1  <0> d           0.002  -0.004   0.002  0.00  0.00     0.085 H 
ATOM      9  H2  <0> d          -2.158   1.228   0.019  0.00  0.00     0.084 H 
ATOM     10  H3  <0> d           2.112   1.264  -0.011  0.00  0.00     0.114 H 
ENDROOT
BRANCH   3  11
ATOM     11  C6  <0> d          -2.473   3.937   0.046  0.00  0.00     0.043 C 
ATOM     12  H4  <0> d          -2.504   4.561   0.939  0.00  0.00     0.081 H 
ATOM     13  H5  <0> d          -2.522   4.569  -0.841  0.00  0.00     0.081 H 
BRANCH  11  14
ATOM     14  O1  <0> d          -3.585   3.039   0.053  0.00  0.00    -0.396 OA
ATOM     15  H6  <0> d          -4.446   3.479   0.063  0.00  0.00     0.209 HD
ENDBRANCH  11  14
ENDBRANCH   3  11
TORSDOF 2
