REMARK  5 active torsions:
REMARK  status: ('A' for Active; 'I' for Inactive)
REMARK    1  A    between atoms: C1_1  and  C2_2 
REMARK    2  A    between atoms: C4_4  and  C6_8 
REMARK    3  A    between atoms: N1_5  and  C5_7 
REMARK    4  A    between atoms: C6_8  and  O2_10 
REMARK    5  A    between atoms: O2_10  and  C7_11 
ROOT
ATOM      1  C2  <0> d           0.002  -0.004   0.002  0.00  0.00     0.053 A 
ATOM      2  C3  <0> d           1.337  -0.415  -0.013  0.00  0.00    -0.025 A 
ATOM      3  C4  <0> d           2.080   0.754  -0.014  0.00  0.00     0.129 A 
ATOM      4  N1  <0> d           1.177   1.780   0.000  0.00  0.00    -0.268 N 
ATOM      5  N2  <0> d          -0.016   1.305   0.009  0.00  0.00    -0.177 NA
ATOM      6  H4  <0> d           1.710  -1.428  -0.021  0.00  0.00     0.090 H 
ENDROOT
BRANCH   3   7
ATOM      7  C6  <0> d           3.546   0.868  -0.027  0.00  0.00     0.311 C 
ATOM      8  O1  <0> d           4.233  -0.135  -0.039  0.00  0.00    -0.258 OA
BRANCH   7   9
ATOM      9  O2  <0> d           4.127   2.084  -0.027  0.00  0.00    -0.321 OA
BRANCH   9  10
ATOM     10  C7  <0> d           5.579   2.120  -0.040  0.00  0.00     0.013 C 
ATOM     11  H8  <0> d           5.963   1.611   0.844  0.00  0.00     0.067 H 
ATOM     12  H9  <0> d           5.946   1.620  -0.936  0.00  0.00     0.067 H 
ATOM     13  H10 <0> d           5.916   3.157  -0.038  0.00  0.00     0.067 H 
ENDBRANCH   9  10
ENDBRANCH   7   9
ENDBRANCH   3   7
BRANCH   4  14
ATOM     14  C5  <0> d           1.519   3.205   0.004  0.00  0.00     0.003 C 
ATOM     15  H5  <0> d           1.613   3.553   1.032  0.00  0.00     0.059 H 
ATOM     16  H6  <0> d           2.464   3.353  -0.518  0.00  0.00     0.059 H 
ATOM     17  H7  <0> d           0.733   3.768  -0.499  0.00  0.00     0.059 H 
ENDBRANCH   4  14
BRANCH   1  18
ATOM     18  C1  <0> d          -1.204  -0.908   0.009  0.00  0.00    -0.034 C 
ATOM     19  H1  <0> d          -1.505  -1.120  -1.017  0.00  0.00     0.035 H 
ATOM     20  H2  <0> d          -0.956  -1.840   0.516  0.00  0.00     0.035 H 
ATOM     21  H3  <0> d          -2.023  -0.416   0.533  0.00  0.00     0.035 H 
ENDBRANCH   1  18
TORSDOF 5
