REMARK  7 active torsions:
REMARK  status: ('A' for Active; 'I' for Inactive)
REMARK    1  A    between atoms: C1_1  and  C2_2 
REMARK    2  A    between atoms: C2_2  and  C3_3 
REMARK    3  A    between atoms: C3_3  and  C4_4 
REMARK    4  A    between atoms: C4_4  and  N1_5 
REMARK       I    between atoms: N1_5  and  C5_6 
REMARK    5  A    between atoms: C5_6  and  C6_8 
REMARK    6  A    between atoms: C6_8  and  C7_9 
REMARK    7  A    between atoms: C6_8  and  C8_10 
ROOT
ATOM      1  N1  <0> d           0.585  -0.664  -1.018  0.00  0.00    -0.361 N 
ATOM      2  C5  <0> d           0.002  -0.004   0.002  0.00  0.00     0.221 C 
ATOM      3  O1  <0> d          -0.506  -0.622   0.913  0.00  0.00    -0.273 OA
ATOM      4  H10 <0> d           0.992  -0.170  -1.747  0.00  0.00     0.162 HD
ENDROOT
BRANCH   1   5
ATOM      5  C4  <0> d           0.605  -2.129  -1.026  0.00  0.00    -0.005 C 
ATOM      6  H8  <0> d           1.132  -2.490  -0.143  0.00  0.00     0.064 H 
ATOM      7  H9  <0> d          -0.418  -2.507  -1.018  0.00  0.00     0.064 H 
BRANCH   5   8
ATOM      8  C3  <0> d           1.321  -2.623  -2.285  0.00  0.00    -0.051 C 
ATOM      9  H6  <0> d           0.794  -2.262  -3.168  0.00  0.00     0.035 H 
ATOM     10  H7  <0> d           2.344  -2.245  -2.293  0.00  0.00     0.035 H 
BRANCH   8  11
ATOM     11  C2  <0> d           1.342  -4.153  -2.293  0.00  0.00    -0.067 C 
ATOM     12  H4  <0> d           1.869  -4.514  -1.410  0.00  0.00     0.032 H 
ATOM     13  H5  <0> d           0.319  -4.530  -2.285  0.00  0.00     0.032 H 
BRANCH  11  14
ATOM     14  C1  <0> d           2.058  -4.646  -3.552  0.00  0.00    -0.076 C 
ATOM     15  H1  <0> d           1.531  -4.285  -4.435  0.00  0.00     0.027 H 
ATOM     16  H2  <0> d           3.081  -4.269  -3.560  0.00  0.00     0.027 H 
ATOM     17  H3  <0> d           2.073  -5.736  -3.558  0.00  0.00     0.027 H 
ENDBRANCH  11  14
ENDBRANCH   8  11
ENDBRANCH   5   8
ENDBRANCH   1   5
BRANCH   2  18
ATOM     18  C6  <0> d          -0.018   1.503   0.010  0.00  0.00     0.017 C 
ATOM     19  H11 <0> d           1.004   1.880   0.003  0.00  0.00     0.053 H 
BRANCH  18  20
ATOM     20  C7  <0> d          -0.758   2.010  -1.229  0.00  0.00    -0.065 C 
ATOM     21  H12 <0> d          -0.773   3.099  -1.223  0.00  0.00     0.028 H 
ATOM     22  H13 <0> d          -0.248   1.658  -2.126  0.00  0.00     0.028 H 
ATOM     23  H14 <0> d          -1.781   1.632  -1.222  0.00  0.00     0.028 H 
ENDBRANCH  18  20
BRANCH  18  24
ATOM     24  C8  <0> d          -0.735   1.996   1.269  0.00  0.00    -0.065 C 
ATOM     25  H15 <0> d          -0.207   1.635   2.152  0.00  0.00     0.028 H 
ATOM     26  H16 <0> d          -0.749   3.086   1.275  0.00  0.00     0.028 H 
ATOM     27  H17 <0> d          -1.757   1.619   1.277  0.00  0.00     0.028 H 
ENDBRANCH  18  24
ENDBRANCH   2  18
TORSDOF 7
