REMARK  3 active torsions:
REMARK  status: ('A' for Active; 'I' for Inactive)
REMARK    1  A    between atoms: C1_1  and  O1_2 
REMARK    2  A    between atoms: O1_2  and  C2_3 
REMARK    3  A    between atoms: C6_7  and  N1_9 
ROOT
ATOM      1  C2  <0> d          -1.239   3.139   0.031  0.00  0.00     0.070 A 
ATOM      2  C3  <0> d          -1.213   1.748   0.017  0.00  0.00    -0.049 A 
ATOM      3  C4  <0> d          -0.013   1.076   0.008  0.00  0.00    -0.058 A 
ATOM      4  C5  <0> d           1.189   1.792   0.000  0.00  0.00     0.070 A 
ATOM      5  C6  <0> d           1.162   3.196   0.008  0.00  0.00     0.049 A 
ATOM      6  C7  <0> d          -0.055   3.861   0.023  0.00  0.00    -0.024 A 
ATOM      7  C8  <0> d           2.440   1.096  -0.016  0.00  0.00     0.101 C 
ATOM      8  N2  <0> d           3.433   0.545  -0.029  0.00  0.00    -0.191 NA
ATOM      9  H4  <0> d          -2.140   1.193   0.018  0.00  0.00     0.087 H 
ATOM     10  H5  <0> d           0.002  -0.004   0.002  0.00  0.00     0.086 H 
ATOM     11  H6  <0> d          -0.081   4.940   0.029  0.00  0.00     0.091 H 
ENDROOT
BRANCH   5  12
ATOM     12  N1  <0> d           2.351   3.917   0.001  0.00  0.00    -0.398 N 
ATOM     13  H7  <0> d           3.201   3.451  -0.009  0.00  0.00     0.156 HD
ATOM     14  H8  <0> d           2.330   4.887   0.007  0.00  0.00     0.156 HD
ENDBRANCH   5  12
BRANCH   1  15
ATOM     15  O1  <0> d          -2.428   3.793   0.046  0.00  0.00    -0.356 OA
BRANCH  15  16
ATOM     16  C1  <0> d          -3.610   2.990   0.053  0.00  0.00     0.010 C 
ATOM     17  H1  <0> d          -3.630   2.365  -0.841  0.00  0.00     0.066 H 
ATOM     18  H2  <0> d          -3.613   2.356   0.939  0.00  0.00     0.066 H 
ATOM     19  H3  <0> d          -4.488   3.635   0.065  0.00  0.00     0.066 H 
ENDBRANCH  15  16
ENDBRANCH   1  15
TORSDOF 3
