REMARK  0 active torsions:
REMARK  status: ('A' for Active; 'I' for Inactive)
ROOT
ATOM      1  C1  <0> d          -0.018   1.514   0.010  0.00  0.00    -0.065 C 
ATOM      2  C2  <0> d           1.364   2.142   0.001  0.00  0.00    -0.062 C 
ATOM      3  C3  <0> d           2.106   1.840   1.304  0.00  0.00    -0.050 C 
ATOM      4  C4  <0> d           2.793   0.498   1.170  0.00  0.00    -0.106 C 
ATOM      5  C5  <0> d           2.099  -0.596   1.171  0.00  0.00    -0.106 C 
ATOM      6  C6  <0> d           0.592  -0.545   1.306  0.00  0.00    -0.050 C 
ATOM      7  C7  <0> d           0.002  -0.004   0.002  0.00  0.00    -0.062 C 
ATOM      8  H1  <0> d          -0.548   1.851   0.902  0.00  0.00     0.033 H 
ATOM      9  H2  <0> d          -0.565   1.860  -0.867  0.00  0.00     0.033 H 
ATOM     10  H3  <0> d           1.934   1.741  -0.838  0.00  0.00     0.033 H 
ATOM     11  H4  <0> d           1.267   3.221  -0.116  0.00  0.00     0.033 H 
ATOM     12  H5  <0> d           2.850   2.615   1.490  0.00  0.00     0.038 H 
ATOM     13  H6  <0> d           1.395   1.806   2.130  0.00  0.00     0.038 H 
ATOM     14  H7  <0> d           3.868   0.452   1.073  0.00  0.00     0.076 H 
ATOM     15  H8  <0> d           2.598  -1.549   1.074  0.00  0.00     0.076 H 
ATOM     16  H9  <0> d           0.208  -1.548   1.493  0.00  0.00     0.038 H 
ATOM     17  H10 <0> d           0.321   0.113   2.132  0.00  0.00     0.038 H 
ATOM     18  H11 <0> d          -1.016  -0.376  -0.113  0.00  0.00     0.033 H 
ATOM     19  H12 <0> d           0.607  -0.350  -0.836  0.00  0.00     0.033 H 
ENDROOT
TORSDOF 0
