REMARK  5 active torsions:
REMARK  status: ('A' for Active; 'I' for Inactive)
REMARK    1  A    between atoms: C1_1  and  C2_2 
REMARK    2  A    between atoms: C2_2  and  C3_4 
REMARK    3  A    between atoms: C2_2  and  N1_7 
REMARK    4  A    between atoms: C3_4  and  C4_5 
REMARK       I    between atoms: N1_7  and  C5_8 
REMARK    5  A    between atoms: C5_8  and  C6_10 
ROOT
ATOM      1  C2  <0> d          -1.214   3.626   0.028  0.00  0.00     0.018 C 
ATOM      2  H1  <0> d          -0.375   3.997   0.615  0.00  0.00     0.072 H 
ENDROOT
BRANCH   1   3
ATOM      3  C1  <0> d          -1.103   4.145  -1.407  0.00  0.00    -0.057 C 
ATOM      4  H2  <0> d          -1.117   5.235  -1.401  0.00  0.00     0.030 H 
ATOM      5  H3  <0> d          -0.168   3.797  -1.848  0.00  0.00     0.030 H 
ATOM      6  H4  <0> d          -1.942   3.773  -1.995  0.00  0.00     0.030 H 
ENDBRANCH   1   3
BRANCH   1   7
ATOM      7  C3  <0> d          -2.526   4.114   0.646  0.00  0.00     0.034 C 
ATOM      8  H5  <0> d          -2.580   5.200   0.572  0.00  0.00     0.052 H 
ATOM      9  H6  <0> d          -3.366   3.671   0.113  0.00  0.00     0.052 H 
BRANCH   7  10
ATOM     10  C4  <0> d          -2.580   3.707   2.096  0.00  0.00     0.174 C 
ATOM     11  O1  <0> d          -1.664   3.089   2.584  0.00  0.00    -0.648 OA
ATOM     12  O3  <0> d          -3.646   4.031   2.845  0.00  0.00    -0.648 OA
ENDBRANCH   7  10
ENDBRANCH   1   7
BRANCH   1  13
ATOM     13  N1  <0> d          -1.195   2.161   0.019  0.00  0.00    -0.357 N 
ATOM     14  C5  <0> d          -0.018   1.503   0.010  0.00  0.00     0.213 C 
ATOM     15  O2  <0> d           1.024   2.123   0.004  0.00  0.00    -0.274 OA
ATOM     16  H7  <0> d          -2.028   1.664   0.021  0.00  0.00     0.162 HD
BRANCH  14  17
ATOM     17  C6  <0> d           0.002  -0.004   0.002  0.00  0.00    -0.003 C 
ATOM     18  H8  <0> d           1.034  -0.353  -0.010  0.00  0.00     0.040 H 
ATOM     19  H9  <0> d          -0.498  -0.379   0.895  0.00  0.00     0.040 H 
ATOM     20  H10 <0> d          -0.515  -0.370  -0.885  0.00  0.00     0.040 H 
ENDBRANCH  14  17
ENDBRANCH   1  13
TORSDOF 5
