REMARK  3 active torsions:
REMARK  status: ('A' for Active; 'I' for Inactive)
REMARK    1  A    between atoms: C1_1  and  C2_2 
REMARK    2  A    between atoms: C2_2  and  C3_3 
REMARK    3  A    between atoms: C2_2  and  N1_4 
ROOT
ATOM      1  N1  <0> d          -0.016   1.342   0.009  0.00  0.00    -0.321 N 
ATOM      2  C4  <0> d           1.141   2.052   0.002  0.00  0.00    -0.017 A 
ATOM      3  C5  <0> d           2.338   1.422  -0.013  0.00  0.00    -0.068 A 
ATOM      4  C6  <0> d           2.392   0.021  -0.021  0.00  0.00    -0.076 A 
ATOM      5  C7  <0> d           1.228  -0.691  -0.013  0.00  0.00    -0.017 A 
ATOM      6  C8  <0> d           0.002  -0.004   0.002  0.00  0.00     0.247 A 
ATOM      7  O1  <0> d          -1.047  -0.628   0.008  0.00  0.00    -0.268 OA
ATOM      8  H8  <0> d           1.106   3.132   0.008  0.00  0.00     0.111 H 
ATOM      9  H9  <0> d           3.252   1.997  -0.019  0.00  0.00     0.085 H 
ATOM     10  H10 <0> d           3.344  -0.489  -0.033  0.00  0.00     0.083 H 
ATOM     11  H11 <0> d           1.249  -1.770  -0.020  0.00  0.00     0.092 H 
ENDROOT
BRANCH   1  12
ATOM     12  C2  <0> d          -1.299   2.049   0.019  0.00  0.00     0.012 C 
ATOM     13  H4  <0> d          -2.113   1.324   0.019  0.00  0.00     0.072 H 
BRANCH  12  14
ATOM     14  C1  <0> d          -1.392   2.920   1.274  0.00  0.00    -0.057 C 
ATOM     15  H1  <0> d          -2.347   3.446   1.281  0.00  0.00     0.030 H 
ATOM     16  H2  <0> d          -1.318   2.290   2.160  0.00  0.00     0.030 H 
ATOM     17  H3  <0> d          -0.578   3.645   1.274  0.00  0.00     0.030 H 
ENDBRANCH  12  14
BRANCH  12  18
ATOM     18  C3  <0> d          -1.404   2.934  -1.225  0.00  0.00    -0.057 C 
ATOM     19  H5  <0> d          -1.338   2.313  -2.118  0.00  0.00     0.030 H 
ATOM     20  H6  <0> d          -2.359   3.460  -1.217  0.00  0.00     0.030 H 
ATOM     21  H7  <0> d          -0.590   3.659  -1.225  0.00  0.00     0.030 H 
ENDBRANCH  12  18
ENDBRANCH   1  12
TORSDOF 3
