REMARK  1 active torsions:
REMARK  status: ('A' for Active; 'I' for Inactive)
REMARK    1  A    between atoms: C1_1  and  C2_2 
ROOT
ATOM      1  C2  <0> d          -1.247   3.134   0.031  0.00  0.00    -0.060 A 
ATOM      2  C3  <0> d          -1.217   1.750   0.017  0.00  0.00    -0.076 A 
ATOM      3  C4  <0> d          -0.013   1.076   0.008  0.00  0.00    -0.061 A 
ATOM      4  C5  <0> d           1.185   1.789   0.000  0.00  0.00     0.065 A 
ATOM      5  C6  <0> d           1.155   3.198   0.008  0.00  0.00     0.065 A 
ATOM      6  C7  <0> d          -0.072   3.859   0.024  0.00  0.00    -0.056 A 
ATOM      7  C8  <0> d           2.377   3.945   0.001  0.00  0.00     0.101 C 
ATOM      8  N1  <0> d           3.346   4.538  -0.005  0.00  0.00    -0.191 NA
ATOM      9  C9  <0> d           2.438   1.095  -0.016  0.00  0.00     0.101 C 
ATOM     10  N2  <0> d           3.431   0.545  -0.029  0.00  0.00    -0.191 NA
ATOM     11  H4  <0> d          -2.143   1.194   0.018  0.00  0.00     0.084 H 
ATOM     12  H5  <0> d           0.002  -0.004   0.002  0.00  0.00     0.085 H 
ATOM     13  H6  <0> d          -0.104   4.939   0.029  0.00  0.00     0.086 H 
ENDROOT
BRANCH   1  14
ATOM     14  C1  <0> d          -2.571   3.854   0.047  0.00  0.00    -0.051 C 
ATOM     15  H1  <0> d          -2.899   4.033  -0.977  0.00  0.00     0.033 H 
ATOM     16  H2  <0> d          -3.310   3.244   0.565  0.00  0.00     0.033 H 
ATOM     17  H3  <0> d          -2.460   4.807   0.565  0.00  0.00     0.033 H 
ENDBRANCH   1  14
TORSDOF 1
