REMARK  0 active torsions:
REMARK  status: ('A' for Active; 'I' for Inactive)
ROOT
ATOM      1  C1  <0> d           2.396   0.004  -0.021  0.00  0.00    -0.077 A 
ATOM      2  C2  <0> d           2.347   1.389  -0.013  0.00  0.00    -0.045 A 
ATOM      3  C3  <0> d           1.106   2.024   0.002  0.00  0.00     0.138 A 
ATOM      4  N1  <0> d          -0.016   1.312   0.009  0.00  0.00    -0.226 NA
ATOM      5  C4  <0> d           0.002  -0.004   0.002  0.00  0.00     0.127 A 
ATOM      6  C5  <0> d           1.202  -0.700  -0.013  0.00  0.00    -0.044 A 
ATOM      7 Cl1  <0> d          -1.496  -0.881   0.012  0.00  0.00    -0.062 Cl
ATOM      8  C6  <0> d           1.040   3.454   0.010  0.00  0.00     0.119 C 
ATOM      9  N2  <0> d           0.987   4.589   0.016  0.00  0.00    -0.190 NA
ATOM     10  H1  <0> d           3.342  -0.515  -0.033  0.00  0.00     0.083 H 
ATOM     11  H2  <0> d           3.258   1.969  -0.018  0.00  0.00     0.088 H 
ATOM     12  H3  <0> d           1.206  -1.780  -0.019  0.00  0.00     0.088 H 
ENDROOT
TORSDOF 0
