REMARK  2 active torsions:
REMARK  status: ('A' for Active; 'I' for Inactive)
REMARK    1  A    between atoms: C6_6  and  C7_7 
REMARK    2  A    between atoms: C7_7  and  O1_8 
ROOT
ATOM      1  C1  <0> d           1.095   3.744   1.208  0.00  0.00    -0.074 A 
ATOM      2  C2  <0> d           0.967   5.119   1.216  0.00  0.00    -0.076 A 
ATOM      3  C3  <0> d           0.891   5.818   0.020  0.00  0.00    -0.051 A 
ATOM      4  C4  <0> d           0.943   5.138  -1.177  0.00  0.00    -0.051 A 
ATOM      5  C5  <0> d           1.077   3.757  -1.184  0.00  0.00    -0.068 A 
ATOM      6  C6  <0> d           1.147   3.062   0.008  0.00  0.00    -0.034 A 
ATOM      7  C8  <0> d           0.819   6.403  -1.984  0.00  0.00    -0.037 A 
ATOM      8  C9  <0> d           0.761   7.154  -0.661  0.00  0.00    -0.037 A 
ATOM      9  H1  <0> d           1.153   3.202   2.140  0.00  0.00     0.084 H 
ATOM     10  H2  <0> d           0.925   5.652   2.155  0.00  0.00     0.084 H 
ATOM     11  H3  <0> d           1.123   3.224  -2.122  0.00  0.00     0.085 H 
ATOM     12  H7  <0> d           1.705   6.517  -2.627  0.00  0.00     0.040 H 
ATOM     13  H8  <0> d          -0.084   6.351  -2.611  0.00  0.00     0.040 H 
ATOM     14  H9  <0> d          -0.182   7.631  -0.357  0.00  0.00     0.040 H 
ATOM     15  H10 <0> d           1.606   7.796  -0.373  0.00  0.00     0.040 H 
ENDROOT
BRANCH   6  16
ATOM     16  C7  <0> d           1.286   1.562  -0.002  0.00  0.00     0.040 C 
ATOM     17  H4  <0> d           1.828   1.250  -0.907  0.00  0.00     0.081 H 
ATOM     18  H5  <0> d           1.845   1.240   0.889  0.00  0.00     0.081 H 
BRANCH  16  19
ATOM     19  O1  <0> d          -0.011   0.963   0.007  0.00  0.00    -0.396 OA
ATOM     20  H6  <0> d          -0.111  -0.133   0.002  0.00  0.00     0.209 HD
ENDBRANCH  16  19
ENDBRANCH   6  16
TORSDOF 2
