REMARK  4 active torsions:
REMARK  status: ('A' for Active; 'I' for Inactive)
REMARK    1  A    between atoms: C1_1  and  N1_2 
REMARK    2  A    between atoms: N1_2  and  C2_3 
REMARK    3  A    between atoms: N1_2  and  C3_4 
REMARK    4  A    between atoms: C3_4  and  C5_8 
ROOT
ATOM      1  C3  <0> d           2.499   1.455  -0.015  0.00  0.00     0.261 C 
ATOM      2  H1  <0> d           2.589   0.420  -0.375  0.00  0.00     0.123 H 
ATOM      3  C4  <0> d           3.052   1.536   1.347  0.00  0.00     0.102 C 
ATOM      4  N2  <0> d           3.479   1.598   2.398  0.00  0.00    -0.195 NA
ENDROOT
BRANCH   1   5
ATOM      5  N1  <0> d           3.266   2.334  -0.907  0.00  0.00     0.104 N 
BRANCH   5   6
ATOM      6  C1  <0> d           4.680   1.937  -0.949  0.00  0.00     0.097 C 
ATOM      7  H2  <0> d           5.090   1.932   0.072  0.00  0.00     0.071 H 
ATOM      8  H3  <0> d           5.243   2.652  -1.567  0.00  0.00     0.071 H 
ATOM      9  H4  <0> d           4.765   0.930  -1.383  0.00  0.00     0.071 H 
ENDBRANCH   5   6
BRANCH   5  10
ATOM     10  C2  <0> d           2.684   2.352  -2.256  0.00  0.00     0.097 C 
ATOM     11  H5  <0> d           1.628   2.651  -2.196  0.00  0.00     0.071 H 
ATOM     12  H6  <0> d           2.756   1.347  -2.700  0.00  0.00     0.071 H 
ATOM     13  H7  <0> d           3.234   3.069  -2.883  0.00  0.00     0.071 H 
ENDBRANCH   5  10
ENDBRANCH   1   5
BRANCH   1  14
ATOM     14  C5  <0> d           1.057   1.892   0.002  0.00  0.00     0.099 A 
ATOM     15  O1  <0> d           0.621   3.162   0.013  0.00  0.00    -0.324 OA
ATOM     16  C8  <0> d          -0.722   3.175   0.026  0.00  0.00     0.019 A 
ATOM     17  C7  <0> d          -1.159   1.903   0.017  0.00  0.00    -0.059 A 
ATOM     18  H10 <0> d          -1.345   4.057   0.037  0.00  0.00     0.123 H 
ATOM     19  C6  <0> d          -0.013   1.076   0.008  0.00  0.00    -0.049 A 
ATOM     20  H9  <0> d          -2.189   1.576   0.020  0.00  0.00     0.086 H 
ATOM     21  H8  <0> d           0.002  -0.004   0.002  0.00  0.00     0.087 H 
ENDBRANCH   1  14
TORSDOF 4
