REMARK  3 active torsions:
REMARK  status: ('A' for Active; 'I' for Inactive)
REMARK    1  A    between atoms: C1_1  and  O1_2 
REMARK    2  A    between atoms: O1_2  and  C2_3 
REMARK    3  A    between atoms: C2_3  and  C3_5 
ROOT
ATOM      1  C3  <0> d          -1.293  -0.775   0.010  0.00  0.00     0.030 A 
ATOM      2  C4  <0> d          -1.636  -1.566   1.274  0.00  0.00    -0.052 A 
ATOM      3  C5  <0> d          -1.205  -2.303   0.003  0.00  0.00    -0.052 A 
ATOM      4  H4  <0> d          -2.117  -0.316  -0.535  0.00  0.00     0.055 H 
ATOM      5  H5  <0> d          -0.925  -1.529   2.100  0.00  0.00     0.034 H 
ATOM      6  H6  <0> d          -2.686  -1.627   1.560  0.00  0.00     0.034 H 
ATOM      7  H7  <0> d          -1.972  -2.848  -0.546  0.00  0.00     0.034 H 
ATOM      8  H8  <0> d          -0.211  -2.750  -0.008  0.00  0.00     0.034 H 
ENDROOT
BRANCH   1   9
ATOM      9  C2  <0> d           0.002  -0.004   0.002  0.00  0.00     0.262 C 
ATOM     10  O2  <0> d           1.056  -0.594  -0.011  0.00  0.00    -0.265 OA
BRANCH   9  11
ATOM     11  O1  <0> d          -0.016   1.338   0.009  0.00  0.00    -0.326 OA
BRANCH  11  12
ATOM     12  C1  <0> d           1.268   2.015   0.001  0.00  0.00     0.013 C 
ATOM     13  H1  <0> d           1.838   1.725   0.884  0.00  0.00     0.067 H 
ATOM     14  H2  <0> d           1.821   1.734  -0.896  0.00  0.00     0.067 H 
ATOM     15  H3  <0> d           1.111   3.093   0.008  0.00  0.00     0.067 H 
ENDBRANCH  11  12
ENDBRANCH   9  11
ENDBRANCH   1   9
TORSDOF 3
