REMARK  2 active torsions:
REMARK  status: ('A' for Active; 'I' for Inactive)
REMARK    1  A    between atoms: C1_1  and  C2_2 
REMARK    2  A    between atoms: C6_6  and  O1_12 
ROOT
ATOM      1  C2  <0> d           0.002  -0.004   0.002  0.00  0.00     0.006 A 
ATOM      2  C3  <0> d           0.007  -0.769  -1.101  0.00  0.00    -0.049 A 
ATOM      3  C4  <0> d           0.029  -2.164  -0.656  0.00  0.00    -0.005 A 
ATOM      4  C5  <0> d           0.043  -3.393  -1.320  0.00  0.00    -0.039 A 
ATOM      5  C6  <0> d           0.063  -4.563  -0.588  0.00  0.00     0.066 A 
ATOM      6  C7  <0> d           0.069  -4.520   0.804  0.00  0.00    -0.049 A 
ATOM      7  C8  <0> d           0.055  -3.314   1.469  0.00  0.00    -0.054 A 
ATOM      8  C9  <0> d           0.036  -2.124   0.749  0.00  0.00     0.043 A 
ATOM      9  N1  <0> d           0.024  -0.795   1.118  0.00  0.00    -0.359 N 
ATOM     10  H1  <0> d           0.029  -0.470   2.032  0.00  0.00     0.166 HD
ATOM     11  H5  <0> d          -0.003  -0.421  -2.124  0.00  0.00     0.087 H 
ATOM     12  H6  <0> d           0.038  -3.428  -2.399  0.00  0.00     0.089 H 
ATOM     13  H7  <0> d           0.083  -5.441   1.368  0.00  0.00     0.087 H 
ATOM     14  H8  <0> d           0.060  -3.293   2.549  0.00  0.00     0.087 H 
ENDROOT
BRANCH   1  15
ATOM     15  C1  <0> d          -0.018   1.503   0.010  0.00  0.00    -0.037 C 
ATOM     16  H2  <0> d           1.004   1.880   0.003  0.00  0.00     0.035 H 
ATOM     17  H3  <0> d          -0.545   1.864  -0.873  0.00  0.00     0.035 H 
ATOM     18  H4  <0> d          -0.529   1.854   0.907  0.00  0.00     0.035 H 
ENDBRANCH   1  15
BRANCH   5  19
ATOM     19  O1  <0> d           0.076  -5.763  -1.228  0.00  0.00    -0.361 OA
ATOM     20  H9  <0> d           0.963  -6.097  -1.418  0.00  0.00     0.217 HD
ENDBRANCH   5  19
TORSDOF 2
