REMARK  0 active torsions:
REMARK  status: ('A' for Active; 'I' for Inactive)
ROOT
ATOM      1  C1  <0> d          -1.222   2.417   0.021  0.00  0.00    -0.055 A 
ATOM      2  C2  <0> d          -1.205   3.773   0.034  0.00  0.00    -0.043 A 
ATOM      3  S1  <0> d           0.546   4.120   0.019  0.00  0.00    -0.112 SA
ATOM      4  C3  <0> d           1.137   2.436   0.004  0.00  0.00    -0.024 A 
ATOM      5  C4  <0> d          -0.021   1.732   0.012  0.00  0.00     0.041 A 
ATOM      6 Cl1  <0> d           0.002  -0.004   0.002  0.00  0.00    -0.084 Cl
ATOM      7  H1  <0> d          -2.160   1.881   0.022  0.00  0.00     0.086 H 
ATOM      8  H2  <0> d          -2.035   4.463   0.046  0.00  0.00     0.095 H 
ATOM      9  H3  <0> d           2.154   2.072  -0.007  0.00  0.00     0.097 H 
ENDROOT
TORSDOF 0
