REMARK  5 active torsions:
REMARK  status: ('A' for Active; 'I' for Inactive)
REMARK    1  A    between atoms: C2_2  and  C8_10 
REMARK    2  A    between atoms: C4_4  and  O2_9 
REMARK    3  A    between atoms: C6_6  and  C7_7 
REMARK    4  A    between atoms: C7_7  and  O1_8 
REMARK    5  A    between atoms: C8_10  and  O3_11 
ROOT
ATOM      1  C1  <0> d           1.095   3.744   1.210  0.00  0.00    -0.067 A 
ATOM      2  C2  <0> d           0.967   5.120   1.222  0.00  0.00    -0.032 A 
ATOM      3  C3  <0> d           0.892   5.819   0.032  0.00  0.00    -0.043 A 
ATOM      4  C4  <0> d           0.944   5.137  -1.175  0.00  0.00     0.066 A 
ATOM      5  C5  <0> d           1.077   3.756  -1.185  0.00  0.00    -0.043 A 
ATOM      6  C6  <0> d           1.147   3.062   0.008  0.00  0.00    -0.032 A 
ATOM      7  H1  <0> d           1.154   3.200   2.141  0.00  0.00     0.085 H 
ATOM      8  H2  <0> d           0.792   6.894   0.042  0.00  0.00     0.088 H 
ATOM      9  H3  <0> d           1.123   3.224  -2.123  0.00  0.00     0.088 H 
ENDROOT
BRANCH   2  10
ATOM     10  C8  <0> d           0.911   5.860   2.533  0.00  0.00     0.041 C 
ATOM     11  H8  <0> d           0.311   6.762   2.417  0.00  0.00     0.081 H 
ATOM     12  H9  <0> d           0.462   5.220   3.292  0.00  0.00     0.081 H 
BRANCH  10  13
ATOM     13  O3  <0> d           2.235   6.218   2.935  0.00  0.00    -0.396 OA
ATOM     14  H10 <0> d           2.276   6.698   3.774  0.00  0.00     0.209 HD
ENDBRANCH  10  13
ENDBRANCH   2  10
BRANCH   6  15
ATOM     15  C7  <0> d           1.286   1.562  -0.002  0.00  0.00     0.041 C 
ATOM     16  H4  <0> d           1.840   1.243   0.881  0.00  0.00     0.081 H 
ATOM     17  H5  <0> d           1.823   1.252  -0.899  0.00  0.00     0.081 H 
BRANCH  15  18
ATOM     18  O1  <0> d          -0.011   0.963   0.007  0.00  0.00    -0.396 OA
ATOM     19  H6  <0> d           0.002  -0.004   0.002  0.00  0.00     0.209 HD
ENDBRANCH  15  18
ENDBRANCH   6  15
BRANCH   4  20
ATOM     20  O2  <0> d           0.870   5.822  -2.347  0.00  0.00    -0.361 OA
ATOM     21  H7  <0> d           1.728   6.101  -2.694  0.00  0.00     0.217 HD
ENDBRANCH   4  20
TORSDOF 5
