REMARK  2 active torsions:
REMARK  status: ('A' for Active; 'I' for Inactive)
REMARK    1  A    between atoms: C2_2  and  C6_9 
REMARK    2  A    between atoms: C6_9  and  O3_10 
ROOT
ATOM      1  C1  <0> d           2.687   1.288  -1.946  0.00  0.00     0.060 C 
ATOM      2  C2  <0> d           2.152   0.728  -0.611  0.00  0.00     0.227 C 
ATOM      3  C3  <0> d           1.074  -0.335  -0.911  0.00  0.00     0.060 C 
ATOM      4  O1  <0> d           0.002  -0.004   0.002  0.00  0.00    -0.360 OA
ATOM      5  C4  <0> d          -0.018   1.439   0.010  0.00  0.00     0.199 C 
ATOM      6  N1  <0> d           1.401   1.862  -0.001  0.00  0.00     0.150 N 
ATOM      7  C5  <0> d           1.573   2.998  -0.934  0.00  0.00     0.199 C 
ATOM      8  O2  <0> d           1.813   2.405  -2.228  0.00  0.00    -0.360 OA
ATOM      9  H1  <0> d           2.618   0.554  -2.762  0.00  0.00     0.078 H 
ATOM     10  H2  <0> d           3.723   1.646  -1.861  0.00  0.00     0.078 H 
ATOM     11  H3  <0> d           0.764  -0.256  -1.964  0.00  0.00     0.078 H 
ATOM     12  H4  <0> d           1.486  -1.338  -0.725  0.00  0.00     0.078 H 
ATOM     13  H5  <0> d          -0.550   1.804  -0.881  0.00  0.00     0.123 H 
ATOM     14  H6  <0> d          -0.532   1.794   0.915  0.00  0.00     0.123 H 
ATOM     15  H7  <0> d           0.661   3.612  -0.936  0.00  0.00     0.123 H 
ATOM     16  H8  <0> d           2.427   3.611  -0.610  0.00  0.00     0.123 H 
ENDROOT
BRANCH   2  17
ATOM     17  C6  <0> d           3.260   0.197   0.300  0.00  0.00     0.055 C 
ATOM     18  H9  <0> d           3.741  -0.670  -0.175  0.00  0.00     0.078 H 
ATOM     19  H10 <0> d           4.008   0.986   0.466  0.00  0.00     0.078 H 
BRANCH  17  20
ATOM     20  O3  <0> d           2.697  -0.197   1.553  0.00  0.00    -0.398 OA
ATOM     21  H11 <0> d           3.345  -0.607   2.342  0.00  0.00     0.209 HD
ENDBRANCH  17  20
ENDBRANCH   2  17
TORSDOF 2
