REMARK  2 active torsions:
REMARK  status: ('A' for Active; 'I' for Inactive)
REMARK    1  A    between atoms: C1_1  and  N1_2 
REMARK    2  A    between atoms: C4_6  and  C5_7 
ROOT
ATOM      1  C5  <0> d          -1.210  -0.899   0.009  0.00  0.00     0.069 C 
ATOM      2  C6  <0> d          -1.619  -1.183  -1.376  0.00  0.00     0.066 C 
ATOM      3  N3  <0> d          -1.935  -1.402  -2.445  0.00  0.00    -0.197 NA
ATOM      4  H6  <0> d          -0.969  -1.833   0.516  0.00  0.00     0.066 H 
ATOM      5  H7  <0> d          -2.026  -0.401   0.534  0.00  0.00     0.066 H 
ENDROOT
BRANCH   1   6
ATOM      6  C4  <0> d           0.002  -0.004   0.002  0.00  0.00     0.118 A 
ATOM      7  N1  <0> d          -0.016   1.346   0.009  0.00  0.00    -0.347 N 
ATOM      8  C2  <0> d           1.286   1.769  -0.001  0.00  0.00    -0.003 A 
ATOM      9  C3  <0> d           2.054   0.663  -0.014  0.00  0.00     0.019 A 
ATOM     10  H4  <0> d           1.630   2.792   0.001  0.00  0.00     0.113 H 
ATOM     11  N2  <0> d           1.244  -0.406  -0.012  0.00  0.00    -0.245 NA
ATOM     12  H5  <0> d           3.134   0.641  -0.025  0.00  0.00     0.117 H 
BRANCH   7  13
ATOM     13  C1  <0> d          -1.207   2.199   0.020  0.00  0.00    -0.013 C 
ATOM     14  H1  <0> d          -1.497   2.405   1.050  0.00  0.00     0.057 H 
ATOM     15  H2  <0> d          -0.987   3.137  -0.490  0.00  0.00     0.057 H 
ATOM     16  H3  <0> d          -2.023   1.690  -0.493  0.00  0.00     0.057 H 
ENDBRANCH   7  13
ENDBRANCH   1   6
TORSDOF 2
