REMARK  1 active torsions:
REMARK  status: ('A' for Active; 'I' for Inactive)
REMARK    1  A    between atoms: C1_1  and  C2_2 
ROOT
ATOM      1  C2  <0> d           1.111   2.007   0.002  0.00  0.00     0.033 A 
ATOM      2  C3  <0> d           2.320   1.329  -0.013  0.00  0.00    -0.043 A 
ATOM      3  C4  <0> d           2.298  -0.057  -0.020  0.00  0.00     0.005 A 
ATOM      4  N1  <0> d           1.132  -0.682  -0.012  0.00  0.00    -0.254 NA
ATOM      5  C5  <0> d           0.002  -0.004   0.002  0.00  0.00     0.086 A 
ATOM      6  N2  <0> d          -0.016   1.314   0.009  0.00  0.00    -0.247 NA
ATOM      7  H4  <0> d           3.256   1.867  -0.019  0.00  0.00     0.088 H 
ATOM      8  H5  <0> d           3.220  -0.619  -0.032  0.00  0.00     0.114 H 
ATOM      9  H6  <0> d          -0.934  -0.542   0.008  0.00  0.00     0.146 H 
ENDROOT
BRANCH   1  10
ATOM     10  C1  <0> d           1.081   3.514   0.010  0.00  0.00    -0.035 C 
ATOM     11  H1  <0> d           1.083   3.872   1.040  0.00  0.00     0.035 H 
ATOM     12  H2  <0> d           1.959   3.897  -0.510  0.00  0.00     0.035 H 
ATOM     13  H3  <0> d           0.179   3.862  -0.494  0.00  0.00     0.035 H 
ENDBRANCH   1  10
TORSDOF 1
