REMARK  0 active torsions:
REMARK  status: ('A' for Active; 'I' for Inactive)
ROOT
ATOM      1  C1  <0> d          -0.017   1.376   0.010  0.00  0.00    -0.082 A 
ATOM      2  C2  <0> d           1.173   2.080   0.002  0.00  0.00    -0.082 A 
ATOM      3  C3  <0> d           2.374   1.400  -0.015  0.00  0.00    -0.075 A 
ATOM      4  C4  <0> d           2.395   0.013  -0.024  0.00  0.00    -0.024 A 
ATOM      5  C5  <0> d           1.208  -0.688  -0.012  0.00  0.00    -0.049 A 
ATOM      6  C6  <0> d           0.002  -0.004   0.002  0.00  0.00    -0.076 A 
ATOM      7  C7  <0> d           1.180  -2.195  -0.009  0.00  0.00    -0.016 C 
ATOM      8  C8  <0> d           2.541  -2.744  -0.440  0.00  0.00     0.115 C 
ATOM      9  N1  <0> d           3.585  -2.085   0.361  0.00  0.00     0.087 N 
ATOM     10  C9  <0> d           3.730  -0.684  -0.048  0.00  0.00     0.135 C 
ATOM     11  H1  <0> d          -0.958   1.905   0.026  0.00  0.00     0.083 H 
ATOM     12  H2  <0> d           1.163   3.160   0.009  0.00  0.00     0.083 H 
ATOM     13  H3  <0> d           3.303   1.951  -0.023  0.00  0.00     0.084 H 
ATOM     14  H4  <0> d          -0.927  -0.554   0.007  0.00  0.00     0.084 H 
ATOM     15  H5  <0> d           0.948  -2.551   0.995  0.00  0.00     0.042 H 
ATOM     16  H6  <0> d           0.413  -2.544  -0.701  0.00  0.00     0.042 H 
ATOM     17  H7  <0> d           2.572  -3.820  -0.269  0.00  0.00     0.080 H 
ATOM     18  H8  <0> d           2.702  -2.533  -1.497  0.00  0.00     0.080 H 
ATOM     19  H9  <0> d           3.382  -2.155   1.347  0.00  0.00     0.316 HD
ATOM     20  H10 <0> d           4.139  -0.644  -1.057  0.00  0.00     0.086 H 
ATOM     21  H11 <0> d           4.413  -0.179   0.635  0.00  0.00     0.086 H 
ENDROOT
TORSDOF 0
