REMARK  0 active torsions:
REMARK  status: ('A' for Active; 'I' for Inactive)
ROOT
ATOM      1  C1  <0> d          -0.141   3.805   0.337  0.00  0.00    -0.000 C 
ATOM      2  C2  <0> d          -1.408   3.052  -0.077  0.00  0.00     0.015 C 
ATOM      3  C3  <0> d          -1.196   1.572   0.017  0.00  0.00     0.218 C 
ATOM      4  O1  <0> d          -2.181   0.871   0.113  0.00  0.00    -0.274 OA
ATOM      5  N1  <0> d          -0.011   0.966   0.007  0.00  0.00    -0.354 N 
ATOM      6  C4  <0> d           1.270   1.666  -0.001  0.00  0.00     0.050 C 
ATOM      7  C5  <0> d           1.039   3.124  -0.328  0.00  0.00     0.144 C 
ATOM      8  O2  <0> d           1.764   3.721  -1.087  0.00  0.00    -0.296 OA
ATOM      9  H1  <0> d          -0.025   3.776   1.330  0.00  0.00     0.045 H 
ATOM     10  H2  <0> d          -0.202   4.842   0.008  0.00  0.00     0.045 H 
ATOM     11  H3  <0> d          -2.229   3.342   0.578  0.00  0.00     0.047 H 
ATOM     12  H4  <0> d          -1.660   3.310  -1.106  0.00  0.00     0.047 H 
ATOM     13  H5  <0> d           0.002  -0.004   0.002  0.00  0.00     0.162 HD
ATOM     14  H6  <0> d           1.699   1.588   0.899  0.00  0.00     0.075 H 
ATOM     15  H7  <0> d           1.922   1.222  -0.753  0.00  0.00     0.075 H 
ENDROOT
TORSDOF 0
