REMARK  1 active torsions:
REMARK  status: ('A' for Active; 'I' for Inactive)
REMARK    1  A    between atoms: C2_2  and  C3_3 
ROOT
ATOM      1  C1  <0> d           0.018  -1.178  -0.004  0.00  0.00    -0.149 C 
ATOM      2  C2  <0> d           0.002  -0.004   0.002  0.00  0.00    -0.077 C 
ATOM      3  H1  <0> d           0.032  -2.228  -0.010  0.00  0.00     0.166 H 
ENDROOT
BRANCH   2   4
ATOM      4  C3  <0> d          -0.017   1.428   0.010  0.00  0.00     0.023 A 
ATOM      5  C6  <0> d           1.149   2.145   0.003  0.00  0.00    -0.027 A 
ATOM      6  S1  <0> d           0.550   3.826   0.017  0.00  0.00    -0.112 SA
ATOM      7  H4  <0> d           2.168   1.786  -0.009  0.00  0.00     0.097 H 
ATOM      8  C5  <0> d          -1.200   3.476   0.032  0.00  0.00    -0.044 A 
ATOM      9  C4  <0> d          -1.224   2.125   0.019  0.00  0.00    -0.058 A 
ATOM     10  H3  <0> d          -2.030   4.168   0.044  0.00  0.00     0.095 H 
ATOM     11  H2  <0> d          -2.164   1.593   0.021  0.00  0.00     0.086 H 
ENDBRANCH   2   4
TORSDOF 1
