REMARK  4 active torsions:
REMARK  status: ('A' for Active; 'I' for Inactive)
REMARK    1  A    between atoms: C1_1  and  C2_2 
REMARK    2  A    between atoms: C2_2  and  C3_3 
REMARK    3  A    between atoms: C3_3  and  O2_5 
REMARK    4  A    between atoms: O2_5  and  C4_6 
ROOT
ATOM      1  C4  <0> d          -0.974   1.750   3.611  0.00  0.00     0.048 C 
ATOM      2  C5  <0> d          -0.373   3.094   4.071  0.00  0.00    -0.040 C 
ATOM      3  C6  <0> d          -0.471   3.044   5.616  0.00  0.00    -0.063 C 
ATOM      4  C7  <0> d          -0.148   1.563   5.931  0.00  0.00    -0.063 C 
ATOM      5  C8  <0> d          -0.831   0.776   4.793  0.00  0.00    -0.040 C 
ATOM      6  H6  <0> d          -2.026   1.878   3.357  0.00  0.00     0.084 H 
ATOM      7  H7  <0> d           0.667   3.175   3.757  0.00  0.00     0.036 H 
ATOM      8  H8  <0> d          -0.957   3.927   3.679  0.00  0.00     0.036 H 
ATOM      9  H9  <0> d          -1.477   3.299   5.948  0.00  0.00     0.033 H 
ATOM     10  H10 <0> d           0.266   3.706   6.072  0.00  0.00     0.033 H 
ATOM     11  H11 <0> d          -0.567   1.278   6.897  0.00  0.00     0.033 H 
ATOM     12  H12 <0> d           0.929   1.396   5.918  0.00  0.00     0.033 H 
ATOM     13  H13 <0> d          -1.813   0.432   5.115  0.00  0.00     0.036 H 
ATOM     14  H14 <0> d          -0.213  -0.074   4.504  0.00  0.00     0.036 H 
ENDROOT
BRANCH   1  15
ATOM     15  O2  <0> d          -0.243   1.247   2.461  0.00  0.00    -0.316 OA
BRANCH  15  16
ATOM     16  C3  <0> d          -0.718   1.572   1.248  0.00  0.00     0.258 C 
ATOM     17  O1  <0> d          -1.711   2.254   1.150  0.00  0.00    -0.265 OA
BRANCH  16  18
ATOM     18  C2  <0> d          -0.013   1.086   0.008  0.00  0.00     0.013 C 
ATOM     19  H4  <0> d           0.002  -0.004   0.002  0.00  0.00     0.047 H 
ATOM     20  H5  <0> d           1.010   1.463   0.000  0.00  0.00     0.047 H 
BRANCH  18  21
ATOM     21  C1  <0> d          -0.753   1.593  -1.232  0.00  0.00    -0.068 C 
ATOM     22  H1  <0> d          -0.242   1.241  -2.128  0.00  0.00     0.028 H 
ATOM     23  H2  <0> d          -1.775   1.215  -1.224  0.00  0.00     0.028 H 
ATOM     24  H3  <0> d          -0.767   2.683  -1.226  0.00  0.00     0.028 H 
ENDBRANCH  18  21
ENDBRANCH  16  18
ENDBRANCH  15  16
ENDBRANCH   1  15
TORSDOF 4
