REMARK  1 active torsions:
REMARK  status: ('A' for Active; 'I' for Inactive)
REMARK    1  A    between atoms: C1_1  and  C2_2 
ROOT
ATOM      1  C2  <0> d          -0.647  -2.269  -0.004  0.00  0.00    -0.046 A 
ATOM      2  C3  <0> d           0.701  -2.666  -0.019  0.00  0.00    -0.072 A 
ATOM      3  C4  <0> d           1.683  -1.725  -0.023  0.00  0.00    -0.036 A 
ATOM      4  C5  <0> d           1.328  -0.362  -0.013  0.00  0.00     0.157 A 
ATOM      5  N1  <0> d           2.028   0.761  -0.013  0.00  0.00    -0.131 NA
ATOM      6  N2  <0> d           1.226   1.767  -0.000  0.00  0.00    -0.143 NA
ATOM      7  C6  <0> d          -0.016   1.356   0.009  0.00  0.00     0.093 A 
ATOM      8  N3  <0> d           0.002  -0.004   0.002  0.00  0.00    -0.298 N 
ATOM      9  C7  <0> d          -0.972  -0.959   0.006  0.00  0.00    -0.007 A 
ATOM     10  H4  <0> d           0.957  -3.716  -0.027  0.00  0.00     0.084 H 
ATOM     11  H5  <0> d           2.722  -2.019  -0.035  0.00  0.00     0.089 H 
ATOM     12  H6  <0> d          -0.896   1.983   0.017  0.00  0.00     0.147 H 
ATOM     13  H7  <0> d          -2.011  -0.665   0.018  0.00  0.00     0.113 H 
ENDROOT
BRANCH   1  14
ATOM     14  C1  <0> d          -1.736  -3.311   0.001  0.00  0.00    -0.050 C 
ATOM     15  H1  <0> d          -2.008  -3.557  -1.025  0.00  0.00     0.033 H 
ATOM     16  H2  <0> d          -1.377  -4.208   0.507  0.00  0.00     0.033 H 
ATOM     17  H3  <0> d          -2.608  -2.922   0.526  0.00  0.00     0.033 H 
ENDBRANCH   1  14
TORSDOF 1
