REMARK  1 active torsions:
REMARK  status: ('A' for Active; 'I' for Inactive)
REMARK    1  A    between atoms: C6_6  and  O1_7 
ROOT
ATOM      1  C1  <0> d           1.207  -0.680  -0.013  0.00  0.00    -0.049 A 
ATOM      2  C2  <0> d           0.002  -0.004   0.002  0.00  0.00    -0.056 A 
ATOM      3  C3  <0> d          -0.017   1.379   0.010  0.00  0.00     0.072 A 
ATOM      4  C4  <0> d           1.173   2.089   0.002  0.00  0.00     0.140 A 
ATOM      5  C5  <0> d           2.381   1.415  -0.013  0.00  0.00    -0.012 A 
ATOM      6  C6  <0> d           2.400   0.028  -0.021  0.00  0.00     0.068 A 
ATOM      7  F1  <0> d           1.154   3.440   0.009  0.00  0.00    -0.204 F 
ATOM      8 Cl1  <0> d          -1.532   2.225   0.021  0.00  0.00    -0.081 Cl
ATOM      9  H1  <0> d           1.221  -1.760  -0.019  0.00  0.00     0.087 H 
ATOM     10  H2  <0> d          -0.926  -0.556   0.007  0.00  0.00     0.086 H 
ATOM     11  H3  <0> d           3.309   1.968  -0.019  0.00  0.00     0.092 H 
ENDROOT
BRANCH   6  12
ATOM     12  O1  <0> d           3.586  -0.636  -0.036  0.00  0.00    -0.361 OA
ATOM     13  H4  <0> d           3.920  -0.823  -0.924  0.00  0.00     0.217 HD
ENDBRANCH   6  12
TORSDOF 1
