REMARK  3 active torsions:
REMARK  status: ('A' for Active; 'I' for Inactive)
REMARK    1  A    between atoms: C1_1  and  C2_2 
REMARK    2  A    between atoms: C6_6  and  C8_8 
REMARK    3  A    between atoms: C8_8  and  C10_10 
ROOT
ATOM      1  C2  <0> d           0.002  -0.004   0.002  0.00  0.00    -0.061 A 
ATOM      2  C3  <0> d           0.006  -0.688  -1.201  0.00  0.00    -0.077 A 
ATOM      3  C4  <0> d           0.024  -2.071  -1.217  0.00  0.00    -0.082 A 
ATOM      4  C5  <0> d           0.039  -2.778  -0.032  0.00  0.00    -0.072 A 
ATOM      5  C6  <0> d           0.036  -2.094   1.184  0.00  0.00    -0.031 A 
ATOM      6  C7  <0> d           0.023  -0.699   1.194  0.00  0.00    -0.067 A 
ATOM      7  H4  <0> d          -0.006  -0.139  -2.131  0.00  0.00     0.084 H 
ATOM      8  H5  <0> d           0.027  -2.599  -2.159  0.00  0.00     0.083 H 
ATOM      9  H6  <0> d           0.053  -3.857  -0.046  0.00  0.00     0.084 H 
ATOM     10  H7  <0> d           0.025  -0.164   2.132  0.00  0.00     0.085 H 
ENDROOT
BRANCH   5  11
ATOM     11  C8  <0> d           0.051  -2.845   2.458  0.00  0.00    -0.061 C 
ATOM     12  C9  <0> d           1.094  -2.750   3.270  0.00  0.00    -0.115 C 
ATOM     13  H8  <0> d           1.106  -3.298   4.200  0.00  0.00     0.067 H 
ATOM     14  H9  <0> d           1.933  -2.124   3.002  0.00  0.00     0.067 H 
BRANCH  11  15
ATOM     15  C10 <0> d          -1.118  -3.718   2.832  0.00  0.00    -0.051 C 
ATOM     16  H10 <0> d          -1.873  -3.670   2.047  0.00  0.00     0.033 H 
ATOM     17  H11 <0> d          -0.780  -4.748   2.948  0.00  0.00     0.033 H 
ATOM     18  H12 <0> d          -1.547  -3.369   3.771  0.00  0.00     0.033 H 
ENDBRANCH  11  15
ENDBRANCH   5  11
BRANCH   1  19
ATOM     19  C1  <0> d          -0.018   1.503   0.010  0.00  0.00    -0.051 C 
ATOM     20  H1  <0> d           1.004   1.880   0.003  0.00  0.00     0.033 H 
ATOM     21  H2  <0> d          -0.545   1.864  -0.873  0.00  0.00     0.033 H 
ATOM     22  H3  <0> d          -0.529   1.854   0.907  0.00  0.00     0.033 H 
ENDBRANCH   1  19
TORSDOF 3
