REMARK  3 active torsions:
REMARK  status: ('A' for Active; 'I' for Inactive)
REMARK    1  A    between atoms: C1_1  and  C2_2 
REMARK    2  A    between atoms: C5_5  and  O1_8 
REMARK    3  A    between atoms: O1_8  and  C7_9 
ROOT
ATOM      1  C2  <0> d           0.002  -0.004   0.002  0.00  0.00    -0.044 A 
ATOM      2  C3  <0> d          -0.017   1.384   0.010  0.00  0.00    -0.072 A 
ATOM      3  C4  <0> d           1.190   2.061   0.002  0.00  0.00    -0.031 A 
ATOM      4  C5  <0> d           2.373   1.332  -0.013  0.00  0.00     0.163 A 
ATOM      5  N1  <0> d           2.350   0.010  -0.020  0.00  0.00    -0.237 NA
ATOM      6  C6  <0> d           1.215  -0.663  -0.013  0.00  0.00     0.011 A 
ATOM      7  H4  <0> d          -0.952   1.924   0.017  0.00  0.00     0.084 H 
ATOM      8  H5  <0> d           1.213   3.140   0.007  0.00  0.00     0.090 H 
ATOM      9  H6  <0> d           1.235  -1.743  -0.019  0.00  0.00     0.115 H 
ENDROOT
BRANCH   4  10
ATOM     10  O1  <0> d           3.563   1.984  -0.022  0.00  0.00    -0.339 OA
BRANCH  10  11
ATOM     11  C7  <0> d           4.744   1.178  -0.038  0.00  0.00     0.012 C 
ATOM     12  H7  <0> d           5.631   1.828  -0.043  0.00  0.00     0.067 H 
ATOM     13  H8  <0> d           4.745   0.548  -0.939  0.00  0.00     0.067 H 
ATOM     14  H9  <0> d           4.763   0.538   0.857  0.00  0.00     0.067 H 
ENDBRANCH  10  11
ENDBRANCH   4  10
BRANCH   1  15
ATOM     15  C1  <0> d          -1.288  -0.783   0.010  0.00  0.00    -0.050 C 
ATOM     16  H1  <0> d          -2.138  -0.085   0.022  0.00  0.00     0.033 H 
ATOM     17  H2  <0> d          -1.325  -1.422   0.905  0.00  0.00     0.033 H 
ATOM     18  H3  <0> d          -1.342  -1.412  -0.891  0.00  0.00     0.033 H 
ENDBRANCH   1  15
TORSDOF 3
