REMARK  0 active torsions:
REMARK  status: ('A' for Active; 'I' for Inactive)
ROOT
ATOM      1  C1  <0> d           4.468   1.922  -0.029  0.00  0.00    -0.081 A 
ATOM      2  C2  <0> d           3.875   3.171  -0.017  0.00  0.00    -0.082 A 
ATOM      3  C3  <0> d           2.493   3.257  -0.004  0.00  0.00    -0.065 A 
ATOM      4  C4  <0> d           1.734   2.108  -0.003  0.00  0.00     0.028 A 
ATOM      5  C5  <0> d           2.304   0.831  -0.015  0.00  0.00     0.045 A 
ATOM      6  C6  <0> d           3.709   0.775  -0.030  0.00  0.00    -0.056 A 
ATOM      7  N1  <0> d           1.447  -0.269  -0.013  0.00  0.00    -0.380 N 
ATOM      8  C7  <0> d           0.002  -0.004   0.002  0.00  0.00     0.038 A 
ATOM      9  S1  <0> d          -0.023   1.833   0.012  0.00  0.00    -0.108 SA
ATOM     10  H1  <0> d           5.545   1.845  -0.040  0.00  0.00     0.083 H 
ATOM     11  H2  <0> d           4.480   4.065  -0.017  0.00  0.00     0.083 H 
ATOM     12  H3  <0> d           2.011   4.224   0.006  0.00  0.00     0.085 H 
ATOM     13  H4  <0> d           4.201  -0.187  -0.039  0.00  0.00     0.087 H 
ATOM     14  H5  <0> d           1.793  -1.175  -0.022  0.00  0.00     0.160 HD
ATOM     15  H6  <0> d          -0.461  -0.407   0.903  0.00  0.00     0.081 H 
ATOM     16  H7  <0> d          -0.478  -0.398  -0.894  0.00  0.00     0.081 H 
ENDROOT
TORSDOF 0
