REMARK  1 active torsions:
REMARK  status: ('A' for Active; 'I' for Inactive)
REMARK    1  A    between atoms: C3_6  and  C4_7 
ROOT
ATOM      1  C4  <0> d          -1.597   4.402   0.039  0.00  0.00    -0.010 C 
ATOM      2  C5  <0> d          -2.842   4.101   0.876  0.00  0.00    -0.057 C 
ATOM      3  C6  <0> d          -3.755   5.328   0.891  0.00  0.00    -0.064 C 
ATOM      4  C7  <0> d          -4.175   5.669  -0.541  0.00  0.00    -0.065 C 
ATOM      5  C8  <0> d          -2.930   5.969  -1.379  0.00  0.00    -0.064 C 
ATOM      6  C9  <0> d          -2.016   4.742  -1.393  0.00  0.00    -0.057 C 
ATOM      7  H4  <0> d          -1.046   5.246   0.478  0.00  0.00     0.049 H 
ATOM      8  H5  <0> d          -3.381   3.248   0.439  0.00  0.00     0.034 H 
ATOM      9  H6  <0> d          -2.540   3.856   1.906  0.00  0.00     0.034 H 
ATOM     10  H7  <0> d          -4.650   5.112   1.493  0.00  0.00     0.033 H 
ATOM     11  H8  <0> d          -3.216   6.182   1.328  0.00  0.00     0.033 H 
ATOM     12  H9  <0> d          -4.713   4.815  -0.978  0.00  0.00     0.033 H 
ATOM     13  H10 <0> d          -4.832   6.551  -0.530  0.00  0.00     0.033 H 
ATOM     14  H11 <0> d          -3.231   6.214  -2.408  0.00  0.00     0.033 H 
ATOM     15  H12 <0> d          -2.391   6.823  -0.942  0.00  0.00     0.033 H 
ATOM     16  H13 <0> d          -1.122   4.958  -1.995  0.00  0.00     0.034 H 
ATOM     17  H14 <0> d          -2.555   3.889  -1.830  0.00  0.00     0.034 H 
ENDROOT
BRANCH   1  18
ATOM     18  C3  <0> d          -0.697   3.193   0.025  0.00  0.00     0.060 A 
ATOM     19  C1  <0> d          -1.116   1.859   0.017  0.00  0.00    -0.041 A 
ATOM     20  C2  <0> d          -0.013   1.076   0.008  0.00  0.00    -0.002 A 
ATOM     21  H2  <0> d          -2.140   1.514   0.020  0.00  0.00     0.088 H 
ATOM     22  N1  <0> d           1.067   1.886   0.002  0.00  0.00    -0.289 N 
ATOM     23  H3  <0> d           0.002  -0.004   0.002  0.00  0.00     0.113 H 
ATOM     24  H1  <0> d           2.078   1.455  -0.009  0.00  0.00     0.188 HD
ATOM     25  N2  <0> d           0.611   3.211   0.013  0.00  0.00    -0.180 NA
ENDBRANCH   1  18
TORSDOF 1
