REMARK  1 active torsions:
REMARK  status: ('A' for Active; 'I' for Inactive)
REMARK    1  A    between atoms: C5_9  and  O1_10 
ROOT
ATOM      1  C1  <0> d           2.384   0.087  -0.022  0.00  0.00    -0.065 A 
ATOM      2  C2  <0> d           1.225  -0.673  -0.014  0.00  0.00    -0.064 A 
ATOM      3  C3  <0> d           0.002  -0.004   0.002  0.00  0.00     0.066 A 
ATOM      4  C4  <0> d          -0.017   1.403   0.010  0.00  0.00     0.158 A 
ATOM      5  N1  <0> d          -1.341   1.795   0.030  0.00  0.00    -0.258 N 
ATOM      6  H1  <0> d          -1.786   2.801   0.046  0.00  0.00     0.191 HD
ATOM      7  N2  <0> d          -2.166   0.666   0.028  0.00  0.00    -0.147 NA
ATOM      8  C5  <0> d          -1.402  -0.446   0.014  0.00  0.00     0.195 A 
ATOM      9  N3  <0> d           1.122   2.078   0.003  0.00  0.00    -0.241 NA
ATOM     10  C6  <0> d           2.290   1.467  -0.013  0.00  0.00     0.004 A 
ATOM     11  H3  <0> d           3.350  -0.394  -0.034  0.00  0.00     0.085 H 
ATOM     12  H4  <0> d           1.268  -1.752  -0.020  0.00  0.00     0.085 H 
ATOM     13  H5  <0> d           3.195   2.057  -0.019  0.00  0.00     0.114 H 
ENDROOT
BRANCH   8  14
ATOM     14  O1  <0> d          -1.799  -1.596   0.012  0.00  0.00    -0.343 OA
ATOM     15  H2  <0> d          -2.878  -1.805   0.021  0.00  0.00     0.219 HD
ENDBRANCH   8  14
TORSDOF 1
