REMARK  3 active torsions:
REMARK  status: ('A' for Active; 'I' for Inactive)
REMARK    1  A    between atoms: C1_1  and  C2_2 
REMARK    2  A    between atoms: C5_6  and  C8_11 
REMARK    3  A    between atoms: C8_11  and  C10_13 
ROOT
ATOM      1  C2  <0> d           0.002  -0.004   0.002  0.00  0.00     0.000 C 
ATOM      2  H1  <0> d          -0.936  -0.350   0.009  0.00  0.00     0.051 H 
ATOM      3  C3  <0> d           0.751  -0.515   1.237  0.00  0.00    -0.055 C 
ATOM      4  C4  <0> d           0.892  -2.036   1.153  0.00  0.00    -0.057 C 
ATOM      5  C5  <0> d           1.749  -2.411  -0.057  0.00  0.00    -0.027 C 
ATOM      6  H2  <0> d           2.715  -1.911   0.013  0.00  0.00     0.047 H 
ATOM      7  C6  <0> d           1.038  -1.971  -1.341  0.00  0.00    -0.003 C 
ATOM      8  C7  <0> d           0.718  -0.496  -1.237  0.00  0.00     0.131 C 
ATOM      9  O1  <0> d           1.029   0.270  -2.117  0.00  0.00    -0.298 OA
ATOM     10  H6  <0> d           1.740  -0.060   1.277  0.00  0.00     0.034 H 
ATOM     11  H7  <0> d           0.193  -0.251   2.136  0.00  0.00     0.034 H 
ATOM     12  H8  <0> d           1.365  -2.407   2.062  0.00  0.00     0.034 H 
ATOM     13  H9  <0> d          -0.096  -2.486   1.050  0.00  0.00     0.034 H 
ATOM     14  H10 <0> d           1.635  -2.137  -2.126  0.00  0.00     0.045 H 
ATOM     15  H11 <0> d           0.113  -2.536  -1.460  0.00  0.00     0.045 H 
ENDROOT
BRANCH   5  16
ATOM     16  C8  <0> d           1.956  -3.904  -0.083  0.00  0.00    -0.089 C 
ATOM     17  C9  <0> d           3.168  -4.398  -0.024  0.00  0.00    -0.119 C 
ATOM     18  H12 <0> d           4.018  -3.736   0.044  0.00  0.00     0.067 H 
ATOM     19  H13 <0> d           3.316  -5.468  -0.043  0.00  0.00     0.067 H 
BRANCH  16  20
ATOM     20  C10 <0> d           0.769  -4.827  -0.178  0.00  0.00    -0.055 C 
ATOM     21  H14 <0> d           0.544  -5.023  -1.227  0.00  0.00     0.033 H 
ATOM     22  H15 <0> d           0.998  -5.766   0.326  0.00  0.00     0.033 H 
ATOM     23  H16 <0> d          -0.094  -4.361   0.297  0.00  0.00     0.033 H 
ENDBRANCH  16  20
ENDBRANCH   5  16
BRANCH   1  24
ATOM     24  C1  <0> d          -0.019   1.526   0.010  0.00  0.00    -0.066 C 
ATOM     25  H3  <0> d           1.004   1.903   0.003  0.00  0.00     0.028 H 
ATOM     26  H4  <0> d          -0.546   1.887  -0.873  0.00  0.00     0.028 H 
ATOM     27  H5  <0> d          -0.529   1.877   0.907  0.00  0.00     0.028 H 
ENDBRANCH   1  24
TORSDOF 3
