REMARK  3 active torsions:
REMARK  status: ('A' for Active; 'I' for Inactive)
REMARK    1  A    between atoms: C3_3  and  C7_9 
REMARK    2  A    between atoms: C5_5  and  N1_7 
REMARK    3  A    between atoms: C7_9  and  O1_10 
ROOT
ATOM      1  C1  <0> d          -0.017   1.377   0.010  0.00  0.00    -0.080 A 
ATOM      2  C2  <0> d           1.170   2.087   0.002  0.00  0.00    -0.072 A 
ATOM      3  C3  <0> d           2.380   1.418  -0.013  0.00  0.00     0.006 A 
ATOM      4  C4  <0> d           2.406   0.035  -0.021  0.00  0.00     0.150 A 
ATOM      5  C5  <0> d           1.214  -0.681  -0.013  0.00  0.00     0.065 A 
ATOM      6  C6  <0> d           0.002  -0.004   0.002  0.00  0.00    -0.055 A 
ATOM      7  F1  <0> d           3.588  -0.619  -0.036  0.00  0.00    -0.203 F 
ATOM      8  H1  <0> d          -0.960   1.904   0.026  0.00  0.00     0.083 H 
ATOM      9  H2  <0> d           1.152   3.167   0.008  0.00  0.00     0.084 H 
ATOM     10  H3  <0> d          -0.925  -0.557   0.008  0.00  0.00     0.087 H 
ENDROOT
BRANCH   3  11
ATOM     11  C7  <0> d           3.671   2.196  -0.022  0.00  0.00     0.043 C 
ATOM     12  H6  <0> d           4.256   1.939   0.861  0.00  0.00     0.081 H 
ATOM     13  H7  <0> d           4.238   1.948  -0.918  0.00  0.00     0.081 H 
BRANCH  11  14
ATOM     14  O1  <0> d           3.383   3.596  -0.012  0.00  0.00    -0.396 OA
ATOM     15  H8  <0> d           4.169   4.159  -0.017  0.00  0.00     0.209 HD
ENDBRANCH  11  14
ENDBRANCH   3  11
BRANCH   5  16
ATOM     16  N1  <0> d           1.236  -2.079  -0.021  0.00  0.00    -0.397 N 
ATOM     17  H4  <0> d           2.084  -2.550  -0.032  0.00  0.00     0.156 HD
ATOM     18  H5  <0> d           0.404  -2.577  -0.016  0.00  0.00     0.156 HD
ENDBRANCH   5  16
TORSDOF 3
