REMARK  1 active torsions:
REMARK  status: ('A' for Active; 'I' for Inactive)
REMARK    1  A    between atoms: C3_4  and  N5_12 
ROOT
ATOM      1  C1  <0> d          -0.016   1.304   0.009  0.00  0.00     0.067 A 
ATOM      2  N1  <0> d           1.247   1.777  -0.000  0.00  0.00    -0.345 N 
ATOM      3  C2  <0> d           2.088   0.683  -0.014  0.00  0.00     0.126 A 
ATOM      4  C3  <0> d           3.484   0.506  -0.029  0.00  0.00     0.157 A 
ATOM      5  N2  <0> d           3.984  -0.724  -0.041  0.00  0.00    -0.174 NA
ATOM      6  C4  <0> d           3.195  -1.795  -0.039  0.00  0.00     0.349 A 
ATOM      7  O1  <0> d           3.700  -2.905  -0.050  0.00  0.00    -0.244 OA
ATOM      8  N3  <0> d           1.852  -1.687  -0.025  0.00  0.00    -0.289 N 
ATOM      9  H1  <0> d           1.300  -2.485  -0.023  0.00  0.00     0.172 HD
ATOM     10  C5  <0> d           1.265  -0.440  -0.012  0.00  0.00     0.163 A 
ATOM     11  N4  <0> d           0.002  -0.004   0.002  0.00  0.00    -0.224 NA
ATOM     12  H2  <0> d          -0.907   1.913   0.025  0.00  0.00     0.143 H 
ATOM     13  H5  <0> d           1.513   2.710   0.002  0.00  0.00     0.167 HD
ENDROOT
BRANCH   4  14
ATOM     14  N5  <0> d           4.322   1.597  -0.032  0.00  0.00    -0.382 N 
ATOM     15  H3  <0> d           3.952   2.494  -0.023  0.00  0.00     0.157 HD
ATOM     16  H4  <0> d           5.284   1.470  -0.042  0.00  0.00     0.157 HD
ENDBRANCH   4  14
TORSDOF 1
