REMARK  2 active torsions:
REMARK  status: ('A' for Active; 'I' for Inactive)
REMARK    1  A    between atoms: C3_3  and  C7_10 
REMARK    2  A    between atoms: C4_5  and  C6_8 
ROOT
ATOM      1  C1  <0> d           0.002  -0.004   0.002  0.00  0.00    -0.063 C 
ATOM      2  C2  <0> d          -0.019   1.534   0.011  0.00  0.00    -0.052 C 
ATOM      3  C3  <0> d           1.453   1.995  -0.001  0.00  0.00     0.043 C 
ATOM      4  H1  <0> d           1.800   2.190   1.014  0.00  0.00     0.058 H 
ATOM      5  C4  <0> d           2.221   0.799  -0.616  0.00  0.00     0.043 C 
ATOM      6  H2  <0> d           2.137   0.804  -1.703  0.00  0.00     0.058 H 
ATOM      7  C5  <0> d           1.486  -0.425  -0.014  0.00  0.00    -0.052 C 
ATOM      8  H3  <0> d          -0.485  -0.389   0.898  0.00  0.00     0.033 H 
ATOM      9  H4  <0> d          -0.502  -0.379  -0.888  0.00  0.00     0.033 H 
ATOM     10  H5  <0> d          -0.533   1.906  -0.876  0.00  0.00     0.034 H 
ATOM     11  H6  <0> d          -0.516   1.896   0.910  0.00  0.00     0.034 H 
ATOM     12  H7  <0> d           1.838  -0.621   0.998  0.00  0.00     0.034 H 
ATOM     13  H8  <0> d           1.627  -1.304  -0.643  0.00  0.00     0.034 H 
ENDROOT
BRANCH   3  14
ATOM     14  C7  <0> d           1.615   3.223  -0.860  0.00  0.00     0.177 C 
ATOM     15  O2  <0> d           2.330   3.190  -1.833  0.00  0.00    -0.648 OA
ATOM     16  O4  <0> d           0.965   4.354  -0.543  0.00  0.00    -0.648 OA
ENDBRANCH   3  14
BRANCH   5  17
ATOM     17  C6  <0> d           3.668   0.814  -0.194  0.00  0.00     0.177 C 
ATOM     18  O1  <0> d           4.098   1.737   0.455  0.00  0.00    -0.648 OA
ATOM     19  O3  <0> d           4.478  -0.199  -0.540  0.00  0.00    -0.648 OA
ENDBRANCH   5  17
TORSDOF 2
