REMARK  3 active torsions:
REMARK  status: ('A' for Active; 'I' for Inactive)
REMARK    1  A    between atoms: C2_2  and  C3_3 
REMARK    2  A    between atoms: C3_3  and  O1_4 
REMARK    3  A    between atoms: O1_4  and  C4_5 
REMARK       I    between atoms: C4_5  and  N1_7 
ROOT
ATOM      1  C1  <0> d           0.018  -1.178  -0.004  0.00  0.00    -0.152 C 
ATOM      2  C2  <0> d           0.002  -0.004   0.002  0.00  0.00    -0.091 C 
ATOM      3  H1  <0> d           0.032  -2.228  -0.010  0.00  0.00     0.166 H 
ENDROOT
BRANCH   2   4
ATOM      4  C3  <0> d          -0.018   1.468   0.010  0.00  0.00     0.084 C 
ATOM      5  H2  <0> d          -0.545   1.829  -0.873  0.00  0.00     0.095 H 
ATOM      6  H3  <0> d          -0.528   1.819   0.907  0.00  0.00     0.095 H 
BRANCH   4   7
ATOM      7  O1  <0> d           1.344   1.970  -0.000  0.00  0.00    -0.292 OA
BRANCH   7   8
ATOM      8  C4  <0> d           1.503   3.307   0.005  0.00  0.00     0.359 C 
ATOM      9  O2  <0> d           0.529   4.034   0.019  0.00  0.00    -0.239 OA
ATOM     10  N1  <0> d           2.741   3.839  -0.004  0.00  0.00    -0.346 N 
ATOM     11  H4  <0> d           3.518   3.259  -0.014  0.00  0.00     0.161 HD
ATOM     12  H5  <0> d           2.855   4.803   0.001  0.00  0.00     0.161 HD
ENDBRANCH   7   8
ENDBRANCH   4   7
ENDBRANCH   2   4
TORSDOF 3
