REMARK  1 active torsions:
REMARK  status: ('A' for Active; 'I' for Inactive)
REMARK    1  A    between atoms: C1_1  and  C2_2 
ROOT
ATOM      1  C2  <0> d           1.203  -0.683  -0.015  0.00  0.00    -0.035 A 
ATOM      2  C3  <0> d           0.002  -0.004   0.002  0.00  0.00    -0.075 A 
ATOM      3  C4  <0> d          -0.017   1.378   0.010  0.00  0.00    -0.082 A 
ATOM      4  C5  <0> d           1.173   2.084   0.002  0.00  0.00    -0.075 A 
ATOM      5  C6  <0> d           2.376   1.410  -0.013  0.00  0.00    -0.030 A 
ATOM      6  C7  <0> d           2.406   0.020  -0.024  0.00  0.00     0.040 A 
ATOM      7  N1  <0> d           3.724  -0.452  -0.050  0.00  0.00    -0.389 N 
ATOM      8  C8  <0> d           4.610   0.649   0.386  0.00  0.00    -0.004 C 
ATOM      9  C9  <0> d           3.808   1.908  -0.016  0.00  0.00    -0.024 C 
ATOM     10  H4  <0> d          -0.927  -0.555   0.010  0.00  0.00     0.084 H 
ATOM     11  H5  <0> d          -0.959   1.907   0.017  0.00  0.00     0.083 H 
ATOM     12  H6  <0> d           1.160   3.164   0.007  0.00  0.00     0.084 H 
ATOM     13  H7  <0> d           4.152  -1.428  -0.321  0.00  0.00     0.159 HD
ATOM     14  H8  <0> d           4.776   0.579   1.471  0.00  0.00     0.064 H 
ATOM     15  H9  <0> d           5.574   0.573  -0.138  0.00  0.00     0.064 H 
ATOM     16  H10 <0> d           4.067   2.273  -1.021  0.00  0.00     0.042 H 
ATOM     17  H11 <0> d           3.913   2.728   0.710  0.00  0.00     0.042 H 
ENDROOT
BRANCH   1  18
ATOM     18  C1  <0> d           1.214  -2.190  -0.024  0.00  0.00    -0.049 C 
ATOM     19  H1  <0> d           0.179  -2.564  -0.015  0.00  0.00     0.033 H 
ATOM     20  H2  <0> d           1.745  -2.558   0.866  0.00  0.00     0.033 H 
ATOM     21  H3  <0> d           1.725  -2.547  -0.930  0.00  0.00     0.033 H 
ENDBRANCH   1  18
TORSDOF 1
