REMARK  0 active torsions:
REMARK  status: ('A' for Active; 'I' for Inactive)
ROOT
ATOM      1  C1  <0> d          -0.759   1.596  -1.228  0.00  0.00    -0.062 C 
ATOM      2  C2  <0> d          -0.729   3.124  -1.276  0.00  0.00    -0.050 C 
ATOM      3  C3  <0> d          -1.451   3.696  -0.048  0.00  0.00    -0.000 C 
ATOM      4  N1  <0> d          -0.876   3.050   1.141  0.00  0.00    -0.328 N 
ATOM      5  C4  <0> d          -0.736   1.583   1.263  0.00  0.00     0.031 C 
ATOM      6  H1  <0> d          -1.700   1.062   1.354  0.00  0.00     0.075 H 
ATOM      7  C5  <0> d          -0.013   1.086   0.008  0.00  0.00    -0.044 C 
ATOM      8  C6  <0> d           0.155   1.408   2.504  0.00  0.00     0.016 C 
ATOM      9  N2  <0> d           0.279   2.772   3.042  0.00  0.00    -0.341 N 
ATOM     10  C7  <0> d          -0.380   3.624   2.237  0.00  0.00     0.318 C 
ATOM     11  O1  <0> d          -0.505   4.809   2.482  0.00  0.00    -0.247 OA
ATOM     12  H2  <0> d          -0.280   1.200  -2.136  0.00  0.00     0.033 H 
ATOM     13  H3  <0> d          -1.806   1.260  -1.189  0.00  0.00     0.033 H 
ATOM     14  H4  <0> d           0.315   3.470  -1.279  0.00  0.00     0.035 H 
ATOM     15  H5  <0> d          -1.234   3.472  -2.190  0.00  0.00     0.035 H 
ATOM     16  H6  <0> d          -1.298   4.784  -0.006  0.00  0.00     0.064 H 
ATOM     17  H7  <0> d          -2.527   3.479  -0.121  0.00  0.00     0.064 H 
ATOM     18  H8  <0> d           0.003  -0.014  -0.001  0.00  0.00     0.036 H 
ATOM     19  H9  <0> d           1.019   1.468  -0.003  0.00  0.00     0.036 H 
ATOM     20  H10 <0> d          -0.334   0.724   3.213  0.00  0.00     0.067 H 
ATOM     21  H11 <0> d           1.127   0.990   2.202  0.00  0.00     0.067 H 
ATOM     22  H12 <0> d           0.847   2.949   3.968  0.00  0.00     0.164 HD
ENDROOT
TORSDOF 0
