REMARK  3 active torsions:
REMARK  status: ('A' for Active; 'I' for Inactive)
REMARK    1  A    between atoms: C1_1  and  O1_9 
REMARK    2  A    between atoms: C1_1  and  C2_2 
REMARK    3  A    between atoms: C3_5  and  N4_8 
ROOT
ATOM      1  C2  <0> d          -0.746   1.924  -1.211  0.00  0.00     0.188 A 
ATOM      2  N1  <0> d          -2.056   2.164  -1.285  0.00  0.00    -0.044 NA
ATOM      3  H1  <0> d          -1.133   2.898  -4.145  0.00  0.00     0.208 HD
ATOM      4  C3  <0> d          -2.361   2.590  -2.493  0.00  0.00     0.716 A 
ATOM      5  N2  <0> d          -1.223   2.626  -3.218  0.00  0.00    -0.106 N 
ATOM      6  N3  <0> d          -0.195   2.196  -2.364  0.00  0.00    -0.141 NA
ENDROOT
BRANCH   1   7
ATOM      7  C1  <0> d          -0.017   1.425   0.010  0.00  0.00     0.075 C 
ATOM      8  H2  <0> d           1.005   1.802   0.002  0.00  0.00     0.086 H 
ATOM      9  H3  <0> d          -0.527   1.776   0.907  0.00  0.00     0.086 H 
BRANCH   7  10
ATOM     10  O1  <0> d           0.002  -0.004   0.002  0.00  0.00    -0.393 OA
ATOM     11  H6  <0> d           0.456  -0.395   0.761  0.00  0.00     0.209 HD
ENDBRANCH   7  10
ENDBRANCH   1   7
BRANCH   4  12
ATOM     12  N4  <0> d          -3.623   2.937  -2.939  0.00  0.00    -0.231 N 
ATOM     13  H4  <0> d          -4.383   2.877  -2.340  0.00  0.00     0.174 HD
ATOM     14  H5  <0> d          -3.748   3.241  -3.852  0.00  0.00     0.174 HD
ENDBRANCH   4  12
TORSDOF 3
