REMARK  2 active torsions:
REMARK  status: ('A' for Active; 'I' for Inactive)
REMARK    1  A    between atoms: C3_3  and  C6_8 
REMARK    2  A    between atoms: C4_4  and  O1_7 
ROOT
ATOM      1  C1  <0> d           0.170   5.202   0.029  0.00  0.00    -0.065 A 
ATOM      2  C2  <0> d           0.062   3.823   0.022  0.00  0.00    -0.061 A 
ATOM      3  C3  <0> d           1.238   3.064   0.007  0.00  0.00     0.093 A 
ATOM      4  C4  <0> d           2.473   3.731   0.004  0.00  0.00     0.179 A 
ATOM      5  N1  <0> d           2.520   5.052   0.006  0.00  0.00    -0.236 NA
ATOM      6  C5  <0> d           1.424   5.786   0.021  0.00  0.00     0.005 A 
ATOM      7  H1  <0> d          -0.717   5.817   0.041  0.00  0.00     0.085 H 
ATOM      8  H2  <0> d          -0.906   3.343   0.029  0.00  0.00     0.085 H 
ATOM      9  H3  <0> d           1.507   6.863   0.026  0.00  0.00     0.114 H 
ENDROOT
BRANCH   3  10
ATOM     10  C6  <0> d           1.181   1.591  -0.001  0.00  0.00     0.213 C 
ATOM     11  O2  <0> d           2.209   0.943  -0.014  0.00  0.00    -0.644 OA
ATOM     12  O3  <0> d          -0.011   0.963   0.007  0.00  0.00    -0.644 OA
ENDBRANCH   3  10
BRANCH   4  13
ATOM     13  O1  <0> d           3.624   3.017  -0.005  0.00  0.00    -0.344 OA
ATOM     14  H4  <0> d           3.954   2.814  -0.891  0.00  0.00     0.219 HD
ENDBRANCH   4  13
TORSDOF 2
