REMARK  0 active torsions:
REMARK  status: ('A' for Active; 'I' for Inactive)
ROOT
ATOM      1  C1  <0> d           2.302   4.497  -2.904  0.00  0.00    -0.082 A 
ATOM      2  C2  <0> d           3.373   4.106  -2.121  0.00  0.00    -0.082 A 
ATOM      3  C3  <0> d           3.205   3.129  -1.160  0.00  0.00    -0.076 A 
ATOM      4  C4  <0> d           1.965   2.538  -0.976  0.00  0.00    -0.040 A 
ATOM      5  C5  <0> d           0.896   2.927  -1.760  0.00  0.00    -0.051 A 
ATOM      6  C6  <0> d           1.067   3.907  -2.723  0.00  0.00    -0.076 A 
ATOM      7  C7  <0> d          -0.337   2.139  -1.373  0.00  0.00    -0.036 C 
ATOM      8  C8  <0> d          -0.019   1.534   0.011  0.00  0.00    -0.030 C 
ATOM      9  H1  <0> d          -0.494   2.014   0.866  0.00  0.00     0.042 H 
ATOM     10  C9  <0> d           1.529   1.464  -0.005  0.00  0.00     0.034 C 
ATOM     11  H2  <0> d           2.078   1.525   0.829  0.00  0.00     0.059 H 
ATOM     12  C10 <0> d           1.373   0.096  -0.635  0.00  0.00     0.136 C 
ATOM     13  O1  <0> d           2.050  -0.611  -1.342  0.00  0.00    -0.297 OA
ATOM     14  C11 <0> d           0.002  -0.004   0.002  0.00  0.00    -0.004 C 
ATOM     15  H3  <0> d           2.432   5.261  -3.655  0.00  0.00     0.083 H 
ATOM     16  H4  <0> d           4.341   4.566  -2.261  0.00  0.00     0.083 H 
ATOM     17  H5  <0> d           4.042   2.825  -0.550  0.00  0.00     0.084 H 
ATOM     18  H6  <0> d           0.231   4.212  -3.334  0.00  0.00     0.084 H 
ATOM     19  H7  <0> d          -0.522   1.347  -2.098  0.00  0.00     0.040 H 
ATOM     20  H8  <0> d          -1.202   2.800  -1.306  0.00  0.00     0.040 H 
ATOM     21  H9  <0> d          -0.121  -0.344   0.934  0.00  0.00     0.045 H 
ATOM     22  H10 <0> d          -0.752  -0.448  -0.648  0.00  0.00     0.045 H 
ENDROOT
TORSDOF 0
