REMARK  8 active torsions:
REMARK  status: ('A' for Active; 'I' for Inactive)
REMARK    1  A    between atoms: C1_1  and  C2_2 
REMARK    2  A    between atoms: C2_2  and  C3_3 
REMARK    3  A    between atoms: C3_3  and  C4_4 
REMARK    4  A    between atoms: C4_4  and  C5_6 
REMARK    5  A    between atoms: C4_4  and  O2_12 
REMARK    6  A    between atoms: C5_6  and  C6_8 
REMARK    7  A    between atoms: C5_6  and  C7_9 
REMARK    8  A    between atoms: C7_9  and  C8_11 
ROOT
ATOM      1  C4  <0> d           0.763  -2.041   1.233  0.00  0.00     0.045 C 
ATOM      2  H1  <0> d          -0.257  -2.417   1.151  0.00  0.00     0.084 H 
ENDROOT
BRANCH   1   3
ATOM      3  C3  <0> d           0.742  -0.511   1.242  0.00  0.00    -0.041 C 
ATOM      4  H8  <0> d           1.765  -0.134   1.234  0.00  0.00     0.036 H 
ATOM      5  H9  <0> d           0.232  -0.159   2.138  0.00  0.00     0.036 H 
BRANCH   3   6
ATOM      6  C2  <0> d           0.002  -0.004   0.002  0.00  0.00    -0.066 C 
ATOM      7  H6  <0> d          -1.020  -0.381   0.010  0.00  0.00     0.032 H 
ATOM      8  H7  <0> d           0.512  -0.356  -0.895  0.00  0.00     0.032 H 
BRANCH   6   9
ATOM      9  C1  <0> d          -0.019   1.526   0.010  0.00  0.00    -0.076 C 
ATOM     10  H3  <0> d           1.004   1.903   0.003  0.00  0.00     0.027 H 
ATOM     11  H4  <0> d          -0.546   1.887  -0.873  0.00  0.00     0.027 H 
ATOM     12  H5  <0> d          -0.529   1.877   0.907  0.00  0.00     0.027 H 
ENDBRANCH   6   9
ENDBRANCH   3   6
ENDBRANCH   1   3
BRANCH   1  13
ATOM     13  C5  <0> d           1.392  -2.549   2.532  0.00  0.00     0.025 C 
ATOM     14  H2  <0> d           0.805  -2.199   3.381  0.00  0.00     0.055 H 
BRANCH  13  15
ATOM     15  C6  <0> d           2.823  -2.021   2.647  0.00  0.00    -0.064 C 
ATOM     16  H10 <0> d           3.409  -2.371   1.797  0.00  0.00     0.028 H 
ATOM     17  H11 <0> d           2.808  -0.931   2.653  0.00  0.00     0.028 H 
ATOM     18  H12 <0> d           3.271  -2.383   3.572  0.00  0.00     0.028 H 
ENDBRANCH  13  15
BRANCH  13  19
ATOM     19  C7  <0> d           1.412  -4.056   2.523  0.00  0.00     0.129 C 
ATOM     20  O1  <0> d           1.502  -4.653   1.478  0.00  0.00    -0.298 OA
BRANCH  19  21
ATOM     21  C8  <0> d           1.321  -4.818   3.821  0.00  0.00    -0.021 C 
ATOM     22  H13 <0> d           1.247  -4.115   4.650  0.00  0.00     0.037 H 
ATOM     23  H14 <0> d           0.438  -5.457   3.805  0.00  0.00     0.037 H 
ATOM     24  H15 <0> d           2.212  -5.434   3.944  0.00  0.00     0.037 H 
ENDBRANCH  19  21
ENDBRANCH  13  19
ENDBRANCH   1  13
BRANCH   1  25
ATOM     25  O2  <0> d           1.531  -2.501   0.120  0.00  0.00    -0.395 OA
ATOM     26  H16 <0> d           2.451  -2.203   0.127  0.00  0.00     0.210 HD
ENDBRANCH   1  25
TORSDOF 8
