REMARK  1 active torsions:
REMARK  status: ('A' for Active; 'I' for Inactive)
REMARK    1  A    between atoms: C1_1  and  N1_2 
ROOT
ATOM      1  N1  <0> d           0.002  -0.004   0.002  0.00  0.00    -0.284 N 
ATOM      2  C2  <0> d           0.007  -0.767  -1.099  0.00  0.00     0.010 A 
ATOM      3  C3  <0> d           0.027  -2.091  -0.698  0.00  0.00     0.013 A 
ATOM      4  C4  <0> d           0.041  -3.332  -1.365  0.00  0.00    -0.069 A 
ATOM      5  C5  <0> d           0.060  -4.494  -0.661  0.00  0.00    -0.081 A 
ATOM      6  C6  <0> d           0.066  -4.527   0.728  0.00  0.00    -0.060 A 
ATOM      7  C7  <0> d           0.054  -3.362   1.478  0.00  0.00     0.075 A 
ATOM      8  C8  <0> d           0.034  -2.075   0.774  0.00  0.00     0.109 A 
ATOM      9  N2  <0> d           0.024  -0.814   1.144  0.00  0.00    -0.171 NA
ATOM     10  C9  <0> d           0.059  -3.413   2.909  0.00  0.00     0.102 C 
ATOM     11  N3  <0> d           0.064  -3.454   4.044  0.00  0.00    -0.191 NA
ATOM     12  H4  <0> d          -0.003  -0.411  -2.119  0.00  0.00     0.115 H 
ATOM     13  H5  <0> d           0.036  -3.360  -2.444  0.00  0.00     0.085 H 
ATOM     14  H6  <0> d           0.070  -5.428  -1.203  0.00  0.00     0.083 H 
ATOM     15  H7  <0> d           0.081  -5.482   1.234  0.00  0.00     0.086 H 
ENDROOT
BRANCH   1  16
ATOM     16  C1  <0> d          -0.018   1.461   0.010  0.00  0.00     0.002 C 
ATOM     17  H1  <0> d           1.005   1.838   0.002  0.00  0.00     0.059 H 
ATOM     18  H2  <0> d          -0.545   1.822  -0.873  0.00  0.00     0.059 H 
ATOM     19  H3  <0> d          -0.528   1.812   0.907  0.00  0.00     0.059 H 
ENDBRANCH   1  16
TORSDOF 1
