REMARK  5 active torsions:
REMARK  status: ('A' for Active; 'I' for Inactive)
REMARK    1  A    between atoms: C1_1  and  C2_2 
REMARK    2  A    between atoms: C2_2  and  C3_3 
REMARK    3  A    between atoms: C3_3  and  C4_5 
REMARK    4  A    between atoms: C3_3  and  N1_7 
REMARK    5  A    between atoms: C4_5  and  O1_6 
ROOT
ATOM      1  C3  <0> d           0.910   3.021  -0.084  0.00  0.00     0.054 C 
ATOM      2  H1  <0> d           0.174   3.239  -0.858  0.00  0.00     0.079 H 
ENDROOT
BRANCH   1   3
ATOM      3  C2  <0> d           0.392   3.519   1.266  0.00  0.00    -0.046 C 
ATOM      4  H5  <0> d          -0.494   2.950   1.548  0.00  0.00     0.035 H 
ATOM      5  H6  <0> d           1.165   3.387   2.023  0.00  0.00     0.035 H 
BRANCH   3   6
ATOM      6  C1  <0> d           0.031   5.003   1.159  0.00  0.00    -0.075 C 
ATOM      7  H2  <0> d          -0.671   5.147   0.338  0.00  0.00     0.027 H 
ATOM      8  H3  <0> d          -0.426   5.334   2.091  0.00  0.00     0.027 H 
ATOM      9  H4  <0> d           0.934   5.583   0.971  0.00  0.00     0.027 H 
ENDBRANCH   3   6
ENDBRANCH   1   3
BRANCH   1  10
ATOM     10  C4  <0> d           1.145   1.511  -0.014  0.00  0.00     0.037 C 
ATOM     11  H7  <0> d           1.805   1.285   0.824  0.00  0.00     0.077 H 
ATOM     12  H8  <0> d           1.607   1.172  -0.942  0.00  0.00     0.077 H 
BRANCH  10  13
ATOM     13  O1  <0> d          -0.104   0.842   0.168  0.00  0.00    -0.399 OA
ATOM     14  H9  <0> d          -0.030  -0.121   0.221  0.00  0.00     0.209 HD
ENDBRANCH  10  13
ENDBRANCH   1  10
BRANCH   1  15
ATOM     15  N1  <0> d           2.169   3.698  -0.404  0.00  0.00    -0.274 N 
ATOM     16  N2  <0> d           2.310   4.849  -1.190  0.00  0.00    -0.185 NA
ATOM     17  C7  <0> d           3.582   5.151  -1.247  0.00  0.00     0.023 A 
ATOM     18  C6  <0> d           4.290   4.205  -0.500  0.00  0.00    -0.048 A 
ATOM     19  H12 <0> d           4.010   5.988  -1.779  0.00  0.00     0.117 H 
ATOM     20  C5  <0> d           3.398   3.326   0.013  0.00  0.00     0.000 A 
ATOM     21  H11 <0> d           5.360   4.182  -0.354  0.00  0.00     0.087 H 
ATOM     22  H10 <0> d           3.628   2.478   0.640  0.00  0.00     0.114 H 
ENDBRANCH   1  15
TORSDOF 5
