REMARK  7 active torsions:
REMARK  status: ('A' for Active; 'I' for Inactive)
REMARK    1  A    between atoms: C1_1  and  C2_2 
REMARK    2  A    between atoms: C2_2  and  O1_3 
REMARK    3  A    between atoms: O1_3  and  C3_4 
REMARK       I    between atoms: C3_4  and  N1_6 
REMARK    4  A    between atoms: N1_6  and  C4_7 
REMARK    5  A    between atoms: C4_7  and  C5_8 
REMARK    6  A    between atoms: C5_8  and  C6_10 
REMARK    7  A    between atoms: C5_8  and  O3_11 
ROOT
ATOM      1  C3  <0> d           0.776  -1.798  -1.335  0.00  0.00     0.360 C 
ATOM      2  O2  <0> d           0.312  -2.549  -0.500  0.00  0.00    -0.239 OA
ATOM      3  N1  <0> d           1.395  -2.298  -2.422  0.00  0.00    -0.334 N 
ATOM      4  H7  <0> d           1.765  -1.699  -3.088  0.00  0.00     0.164 HD
ENDROOT
BRANCH   3   5
ATOM      5  C4  <0> d           1.509  -3.748  -2.597  0.00  0.00     0.021 C 
ATOM      6  H8  <0> d           2.063  -4.173  -1.760  0.00  0.00     0.068 H 
ATOM      7  H9  <0> d           0.513  -4.189  -2.635  0.00  0.00     0.068 H 
BRANCH   5   8
ATOM      8  C5  <0> d           2.249  -4.048  -3.902  0.00  0.00     0.047 C 
ATOM      9  H1  <0> d           1.744  -3.549  -4.729  0.00  0.00     0.084 H 
BRANCH   8  10
ATOM     10  C6  <0> d           2.260  -5.558  -4.148  0.00  0.00    -0.051 C 
ATOM     11  H10 <0> d           2.765  -6.057  -3.321  0.00  0.00     0.030 H 
ATOM     12  H11 <0> d           1.234  -5.921  -4.220  0.00  0.00     0.030 H 
ATOM     13  H12 <0> d           2.787  -5.771  -5.077  0.00  0.00     0.030 H 
ENDBRANCH   8  10
BRANCH   8  14
ATOM     14  O3  <0> d           3.593  -3.571  -3.808  0.00  0.00    -0.394 OA
ATOM     15  H13 <0> d           4.123  -3.728  -4.601  0.00  0.00     0.210 HD
ENDBRANCH   8  14
ENDBRANCH   5   8
ENDBRANCH   3   5
BRANCH   1  16
ATOM     16  O1  <0> d           0.671  -0.465  -1.174  0.00  0.00    -0.304 OA
BRANCH  16  17
ATOM     17  C2  <0> d           0.002  -0.004   0.002  0.00  0.00     0.027 C 
ATOM     18  H5  <0> d           0.529  -0.365   0.885  0.00  0.00     0.074 H 
ATOM     19  H6  <0> d          -1.020  -0.381   0.010  0.00  0.00     0.074 H 
BRANCH  17  20
ATOM     20  C1  <0> d          -0.019   1.526   0.010  0.00  0.00    -0.056 C 
ATOM     21  H2  <0> d           1.004   1.903   0.003  0.00  0.00     0.030 H 
ATOM     22  H3  <0> d          -0.546   1.887  -0.873  0.00  0.00     0.030 H 
ATOM     23  H4  <0> d          -0.529   1.877   0.907  0.00  0.00     0.030 H 
ENDBRANCH  17  20
ENDBRANCH  16  17
ENDBRANCH   1  16
TORSDOF 7
