REMARK  2 active torsions:
REMARK  status: ('A' for Active; 'I' for Inactive)
REMARK    1  A    between atoms: C2_2  and  O4_14 
REMARK    2  A    between atoms: C5_9  and  O3_13 
ROOT
ATOM      1  C1  <0> d           0.469   2.487   1.940  0.00  0.00     0.046 C 
ATOM      2  C2  <0> d          -0.665   1.666   1.282  0.00  0.00     0.083 C 
ATOM      3  H1  <0> d          -0.975   0.864   1.952  0.00  0.00     0.090 H 
ATOM      4  C3  <0> d          -0.013   1.086   0.008  0.00  0.00     0.092 C 
ATOM      5  H2  <0> d           0.002  -0.004   0.002  0.00  0.00     0.091 H 
ATOM      6  C4  <0> d           1.412   1.709  -0.002  0.00  0.00     0.092 C 
ATOM      7  H3  <0> d           2.180   1.016   0.343  0.00  0.00     0.091 H 
ATOM      8  O1  <0> d           1.307   2.882   0.831  0.00  0.00    -0.378 OA
ATOM      9  C5  <0> d           1.618   2.145  -1.470  0.00  0.00     0.083 C 
ATOM     10  H4  <0> d           2.496   1.658  -1.893  0.00  0.00     0.090 H 
ATOM     11  C6  <0> d           0.333   1.670  -2.184  0.00  0.00     0.046 C 
ATOM     12  O2  <0> d          -0.665   1.640  -1.154  0.00  0.00    -0.378 OA
ATOM     13  H5  <0> d           1.034   1.879   2.646  0.00  0.00     0.078 H 
ATOM     14  H6  <0> d           0.057   3.365   2.438  0.00  0.00     0.078 H 
ATOM     15  H7  <0> d           0.054   2.371  -2.971  0.00  0.00     0.078 H 
ATOM     16  H8  <0> d           0.474   0.671  -2.597  0.00  0.00     0.078 H 
ENDROOT
BRANCH   2  17
ATOM     17  O4  <0> d          -1.778   2.495   0.942  0.00  0.00    -0.391 OA
ATOM     18  H10 <0> d          -2.225   2.886   1.705  0.00  0.00     0.210 HD
ENDBRANCH   2  17
BRANCH   9  19
ATOM     19  O3  <0> d           1.744   3.566  -1.557  0.00  0.00    -0.391 OA
ATOM     20  H9  <0> d           1.876   3.894  -2.457  0.00  0.00     0.210 HD
ENDBRANCH   9  19
TORSDOF 2
