REMARK  0 active torsions:
REMARK  status: ('A' for Active; 'I' for Inactive)
ROOT
ATOM      1  C1  <0> d           1.169   2.063   0.002  0.00  0.00    -0.023 A 
ATOM      2  C2  <0> d           1.099   3.462   0.010  0.00  0.00     0.065 A 
ATOM      3  C3  <0> d          -0.155   4.074   0.025  0.00  0.00     0.022 A 
ATOM      4  N1  <0> d          -1.255   3.350   0.031  0.00  0.00    -0.269 NA
ATOM      5  C4  <0> d          -1.221   2.031   0.019  0.00  0.00     0.039 A 
ATOM      6  C5  <0> d          -0.016   1.347   0.009  0.00  0.00     0.135 A 
ATOM      7  F1  <0> d           0.002  -0.004   0.002  0.00  0.00    -0.205 F 
ATOM      8  C6  <0> d           2.294   4.251   0.002  0.00  0.00     0.101 C 
ATOM      9  N2  <0> d           3.242   4.877  -0.004  0.00  0.00    -0.191 NA
ATOM     10  H1  <0> d           2.123   1.557  -0.009  0.00  0.00     0.090 H 
ATOM     11  H2  <0> d          -0.225   5.152   0.030  0.00  0.00     0.117 H 
ATOM     12  H3  <0> d          -2.148   1.476   0.020  0.00  0.00     0.119 H 
ENDROOT
TORSDOF 0
