REMARK  2 active torsions:
REMARK  status: ('A' for Active; 'I' for Inactive)
REMARK    1  A    between atoms: C3_4  and  C4_6 
REMARK    2  A    between atoms: C4_6  and  N2_7 
REMARK       I    between atoms: N2_7  and  C5_8 
REMARK       I    between atoms: C5_8  and  N3_10 
ROOT
ATOM      1  C4  <0> d           1.335  -2.163  -0.022  0.00  0.00     0.043 C 
ATOM      2  H3  <0> d           2.271  -2.405   0.481  0.00  0.00     0.074 H 
ATOM      3  H4  <0> d           0.507  -2.647   0.497  0.00  0.00     0.074 H 
ENDROOT
BRANCH   1   4
ATOM      4  C3  <0> d           1.129  -0.670  -0.012  0.00  0.00     0.092 A 
ATOM      5  S1  <0> d           2.294   0.545  -0.017  0.00  0.00    -0.084 SA
ATOM      6  C2  <0> d           1.186   1.946   0.001  0.00  0.00    -0.026 A 
ATOM      7  C1  <0> d          -0.016   1.314   0.009  0.00  0.00     0.009 A 
ATOM      8  H2  <0> d           1.410   3.002   0.005  0.00  0.00     0.097 H 
ATOM      9  N1  <0> d           0.002  -0.004   0.002  0.00  0.00    -0.256 NA
ATOM     10  H1  <0> d          -0.944   1.866   0.025  0.00  0.00     0.115 H 
ENDBRANCH   1   4
BRANCH   1  11
ATOM     11  N2  <0> d           1.388  -2.640  -1.407  0.00  0.00    -0.337 N 
ATOM     12  C5  <0> d           1.566  -3.951  -1.662  0.00  0.00     0.314 C 
ATOM     13  O1  <0> d           1.683  -4.739  -0.743  0.00  0.00    -0.248 OA
ATOM     14  N3  <0> d           1.615  -4.389  -2.935  0.00  0.00    -0.352 N 
ATOM     15  H6  <0> d           1.522  -3.761  -3.668  0.00  0.00     0.160 HD
ATOM     16  H7  <0> d           1.743  -5.333  -3.119  0.00  0.00     0.160 HD
ATOM     17  H5  <0> d           1.295  -2.011  -2.140  0.00  0.00     0.164 HD
ENDBRANCH   1  11
TORSDOF 2
