REMARK  3 active torsions:
REMARK  status: ('A' for Active; 'I' for Inactive)
REMARK    1  A    between atoms: C1_1  and  C2_2 
REMARK    2  A    between atoms: C4_4  and  C7_9 
REMARK    3  A    between atoms: C5_5  and  O1_8 
ROOT
ATOM      1  C2  <0> d           0.002  -0.004   0.002  0.00  0.00    -0.043 A 
ATOM      2  C3  <0> d           0.006  -0.694  -1.196  0.00  0.00    -0.055 A 
ATOM      3  C4  <0> d           0.026  -2.095  -1.157  0.00  0.00     0.093 A 
ATOM      4  C5  <0> d           0.041  -2.736   0.093  0.00  0.00     0.179 A 
ATOM      5  N1  <0> d           0.036  -2.026   1.208  0.00  0.00    -0.236 NA
ATOM      6  C6  <0> d           0.023  -0.708   1.193  0.00  0.00     0.011 A 
ATOM      7  H4  <0> d          -0.006  -0.167  -2.139  0.00  0.00     0.086 H 
ATOM      8  H5  <0> d           0.024  -0.167   2.128  0.00  0.00     0.115 H 
ENDROOT
BRANCH   1   9
ATOM      9  C1  <0> d          -0.018   1.503   0.010  0.00  0.00    -0.050 C 
ATOM     10  H1  <0> d           1.004   1.880   0.003  0.00  0.00     0.033 H 
ATOM     11  H2  <0> d          -0.545   1.864  -0.873  0.00  0.00     0.033 H 
ATOM     12  H3  <0> d          -0.529   1.854   0.907  0.00  0.00     0.033 H 
ENDBRANCH   1   9
BRANCH   3  13
ATOM     13  C7  <0> d           0.030  -2.880  -2.402  0.00  0.00     0.213 C 
ATOM     14  O2  <0> d           0.017  -2.310  -3.484  0.00  0.00    -0.644 OA
ATOM     15  O3  <0> d           0.047  -4.102  -2.354  0.00  0.00    -0.644 OA
ENDBRANCH   3  13
BRANCH   4  16
ATOM     16  O1  <0> d           0.059  -4.088   0.155  0.00  0.00    -0.344 OA
ATOM     17  H6  <0> d           0.948  -4.469   0.169  0.00  0.00     0.219 HD
ENDBRANCH   4  16
TORSDOF 3
