REMARK  1 active torsions:
REMARK  status: ('A' for Active; 'I' for Inactive)
REMARK    1  A    between atoms: C4_5  and  C6_7 
ROOT
ATOM      1  C1  <0> d          -4.157  -0.374   0.122  0.00  0.00    -0.079 A 
ATOM      2  C2  <0> d          -5.162   0.579   0.024  0.00  0.00    -0.066 A 
ATOM      3  C3  <0> d          -4.822   1.915  -0.072  0.00  0.00     0.003 A 
ATOM      4  N1  <0> d          -3.560   2.294  -0.072  0.00  0.00    -0.260 NA
ATOM      5  C4  <0> d          -2.570   1.415   0.020  0.00  0.00     0.069 A 
ATOM      6  C5  <0> d          -2.841   0.051   0.114  0.00  0.00    -0.054 A 
ATOM      7  H2  <0> d          -4.398  -1.424   0.198  0.00  0.00     0.083 H 
ATOM      8  H3  <0> d          -6.200   0.279   0.024  0.00  0.00     0.085 H 
ATOM      9  H4  <0> d          -5.602   2.659  -0.149  0.00  0.00     0.114 H 
ATOM     10  H5  <0> d          -2.034  -0.663   0.185  0.00  0.00     0.087 H 
ENDROOT
BRANCH   5  11
ATOM     11  C6  <0> d          -1.164   1.888   0.017  0.00  0.00     0.029 A 
ATOM     12  C8  <0> d          -0.013   1.076   0.008  0.00  0.00     0.035 A 
ATOM     13  N3  <0> d           1.034   1.857   0.002  0.00  0.00    -0.187 NA
ATOM     14  H7  <0> d           0.002  -0.004   0.002  0.00  0.00     0.118 H 
ATOM     15  N2  <0> d           0.597   3.187   0.013  0.00  0.00    -0.289 N 
ATOM     16  C7  <0> d          -0.750   3.189   0.025  0.00  0.00     0.009 A 
ATOM     17  H1  <0> d           1.184   3.997   0.011  0.00  0.00     0.188 HD
ATOM     18  H6  <0> d          -1.387   4.061   0.035  0.00  0.00     0.115 H 
ENDBRANCH   5  11
TORSDOF 1
