REMARK  5 active torsions:
REMARK  status: ('A' for Active; 'I' for Inactive)
REMARK    1  A    between atoms: C1_1  and  C2_2 
REMARK    2  A    between atoms: C4_7  and  C8_11 
REMARK    3  A    between atoms: C4_7  and  C9_12 
REMARK    4  A    between atoms: C5_8  and  C6_9 
REMARK    5  A    between atoms: C5_8  and  C7_10 
ROOT
ATOM      1  C2  <0> d          -1.248   2.089   0.018  0.00  0.00     0.036 C 
ATOM      2  H1  <0> d          -2.068   1.598   0.543  0.00  0.00     0.056 H 
ATOM      3  C3  <0> d          -0.014   1.204   0.009  0.00  0.00     0.264 C 
ATOM      4  O1  <0> d           0.002  -0.004   0.002  0.00  0.00    -0.265 OA
ATOM      5  O2  <0> d           1.057   2.018   0.003  0.00  0.00    -0.310 OA
ATOM      6  C4  <0> d           0.757   3.227   0.755  0.00  0.00     0.071 C 
ATOM      7  C5  <0> d          -0.781   3.346   0.792  0.00  0.00    -0.004 C 
ENDROOT
BRANCH   6   8
ATOM      8  C8  <0> d           1.309   3.112   2.177  0.00  0.00    -0.047 C 
ATOM      9  H11 <0> d           2.393   3.000   2.138  0.00  0.00     0.031 H 
ATOM     10  H12 <0> d           1.057   4.011   2.739  0.00  0.00     0.031 H 
ATOM     11  H13 <0> d           0.872   2.243   2.668  0.00  0.00     0.031 H 
ENDBRANCH   6   8
BRANCH   6  12
ATOM     12  C9  <0> d           1.362   4.445   0.054  0.00  0.00    -0.047 C 
ATOM     13  H14 <0> d           0.962   4.519  -0.957  0.00  0.00     0.031 H 
ATOM     14  H15 <0> d           1.110   5.348   0.611  0.00  0.00     0.031 H 
ATOM     15  H16 <0> d           2.446   4.337   0.009  0.00  0.00     0.031 H 
ENDBRANCH   6  12
BRANCH   7  16
ATOM     16  C6  <0> d          -1.290   3.319   2.235  0.00  0.00    -0.066 C 
ATOM     17  H5  <0> d          -0.859   4.154   2.788  0.00  0.00     0.028 H 
ATOM     18  H6  <0> d          -2.377   3.404   2.237  0.00  0.00     0.028 H 
ATOM     19  H7  <0> d          -0.998   2.381   2.706  0.00  0.00     0.028 H 
ENDBRANCH   7  16
BRANCH   7  20
ATOM     20  C7  <0> d          -1.242   4.620   0.081  0.00  0.00    -0.066 C 
ATOM     21  H8  <0> d          -0.915   4.595  -0.958  0.00  0.00     0.028 H 
ATOM     22  H9  <0> d          -2.329   4.684   0.119  0.00  0.00     0.028 H 
ATOM     23  H10 <0> d          -0.809   5.489   0.577  0.00  0.00     0.028 H 
ENDBRANCH   7  20
BRANCH   1  24
ATOM     24  C1  <0> d          -1.661   2.453  -1.409  0.00  0.00    -0.063 C 
ATOM     25  H2  <0> d          -1.908   1.545  -1.958  0.00  0.00     0.028 H 
ATOM     26  H3  <0> d          -2.531   3.108  -1.379  0.00  0.00     0.028 H 
ATOM     27  H4  <0> d          -0.837   2.965  -1.906  0.00  0.00     0.028 H 
ENDBRANCH   1  24
TORSDOF 5
