REMARK  1 active torsions:
REMARK  status: ('A' for Active; 'I' for Inactive)
REMARK    1  A    between atoms: C3_3  and  C8_9 
ROOT
ATOM      1  C1  <0> d          -0.720   4.381  -3.443  0.00  0.00    -0.062 A 
ATOM      2  C2  <0> d          -1.006   3.193  -2.803  0.00  0.00    -0.075 A 
ATOM      3  C3  <0> d          -0.834   3.082  -1.435  0.00  0.00    -0.054 A 
ATOM      4  C4  <0> d          -0.379   4.161  -0.699  0.00  0.00    -0.075 A 
ATOM      5  C5  <0> d          -0.083   5.353  -1.327  0.00  0.00    -0.062 A 
ATOM      6  C6  <0> d          -0.254   5.473  -2.707  0.00  0.00     0.044 A 
ATOM      7  C7  <0> d           0.046   6.708  -3.365  0.00  0.00     0.099 C 
ATOM      8  N1  <0> d           0.284   7.689  -3.887  0.00  0.00    -0.191 NA
ATOM      9  H1  <0> d          -0.854   4.467  -4.511  0.00  0.00     0.085 H 
ATOM     10  H2  <0> d          -1.366   2.348  -3.372  0.00  0.00     0.084 H 
ATOM     11  H3  <0> d          -0.250   4.068   0.370  0.00  0.00     0.084 H 
ATOM     12  H4  <0> d           0.277   6.193  -0.751  0.00  0.00     0.085 H 
ENDROOT
BRANCH   3  13
ATOM     13  C8  <0> d          -1.150   1.781  -0.743  0.00  0.00    -0.029 A 
ATOM     14  C10 <0> d          -1.136   1.773   0.788  0.00  0.00    -0.057 A 
ATOM     15  C9  <0> d          -0.013   1.086   0.008  0.00  0.00    -0.057 A 
ATOM     16  H8  <0> d          -1.859   1.135   1.295  0.00  0.00     0.034 H 
ATOM     17  H9  <0> d          -0.897   2.708   1.294  0.00  0.00     0.034 H 
ATOM     18  H6  <0> d           0.002  -0.004   0.002  0.00  0.00     0.034 H 
ATOM     19  H7  <0> d           0.964   1.569   0.001  0.00  0.00     0.034 H 
ATOM     20  H5  <0> d          -1.884   1.149  -1.243  0.00  0.00     0.047 H 
ENDBRANCH   3  13
TORSDOF 1
