REMARK  2 active torsions:
REMARK  status: ('A' for Active; 'I' for Inactive)
REMARK    1  A    between atoms: C1_1  and  C2_2 
REMARK    2  A    between atoms: C6_6  and  C8_8 
ROOT
ATOM      1  C8  <0> d          -0.070   5.347   0.030  0.00  0.00     0.038 C 
ATOM      2  C9  <0> d          -0.090   5.845  -1.355  0.00  0.00     0.063 C 
ATOM      3  N1  <0> d          -0.105   6.229  -2.424  0.00  0.00    -0.197 NA
ATOM      4  H8  <0> d          -0.961   5.696   0.554  0.00  0.00     0.062 H 
ATOM      5  H9  <0> d           0.819   5.720   0.538  0.00  0.00     0.062 H 
ENDROOT
BRANCH   1   6
ATOM      6  C6  <0> d          -0.050   3.840   0.022  0.00  0.00    -0.045 A 
ATOM      7  C5  <0> d           1.156   3.166   0.008  0.00  0.00    -0.076 A 
ATOM      8  C4  <0> d           1.175   1.783   0.000  0.00  0.00    -0.082 A 
ATOM      9  H6  <0> d           2.084   3.718   0.001  0.00  0.00     0.084 H 
ATOM     10  C3  <0> d          -0.013   1.076   0.008  0.00  0.00    -0.077 A 
ATOM     11  H5  <0> d           2.117   1.256  -0.011  0.00  0.00     0.083 H 
ATOM     12  C2  <0> d          -1.219   1.751   0.017  0.00  0.00    -0.061 A 
ATOM     13  H4  <0> d           0.002  -0.004   0.002  0.00  0.00     0.084 H 
ATOM     14  C7  <0> d          -1.238   3.133   0.030  0.00  0.00    -0.070 A 
ATOM     15  H7  <0> d          -2.180   3.660   0.042  0.00  0.00     0.085 H 
BRANCH  12  16
ATOM     16  C1  <0> d          -2.514   0.980   0.019  0.00  0.00    -0.051 C 
ATOM     17  H1  <0> d          -2.821   0.788   1.047  0.00  0.00     0.033 H 
ATOM     18  H2  <0> d          -3.284   1.561  -0.488  0.00  0.00     0.033 H 
ATOM     19  H3  <0> d          -2.373   0.032  -0.500  0.00  0.00     0.033 H 
ENDBRANCH  12  16
ENDBRANCH   1   6
TORSDOF 2
