REMARK  2 active torsions:
REMARK  status: ('A' for Active; 'I' for Inactive)
REMARK    1  A    between atoms: C1_1  and  C2_2 
REMARK    2  A    between atoms: C4_5  and  C5_7 
ROOT
ATOM      1  C2  <0> d           0.002  -0.004   0.002  0.00  0.00    -0.050 A 
ATOM      2  H1  <0> d           0.075  -0.468  -0.982  0.00  0.00     0.040 H 
ATOM      3  C3  <0> d          -0.828  -0.728   1.065  0.00  0.00    -0.054 A 
ATOM      4  C4  <0> d           0.700  -0.708   1.168  0.00  0.00    -0.025 A 
ATOM      5  H2  <0> d           1.231  -1.634   0.951  0.00  0.00     0.048 H 
ATOM      6  H6  <0> d          -1.388  -0.114   1.770  0.00  0.00     0.034 H 
ATOM      7  H7  <0> d          -1.300  -1.668   0.780  0.00  0.00     0.034 H 
ENDROOT
BRANCH   4   8
ATOM      8  C5  <0> d           1.314   0.159   2.237  0.00  0.00    -0.054 A 
ATOM      9  C10 <0> d           2.670   0.083   2.495  0.00  0.00    -0.076 A 
ATOM     10  C9  <0> d           3.233   0.881   3.472  0.00  0.00    -0.082 A 
ATOM     11  H12 <0> d           3.289  -0.599   1.930  0.00  0.00     0.084 H 
ATOM     12  C8  <0> d           2.440   1.750   4.198  0.00  0.00    -0.083 A 
ATOM     13  H11 <0> d           4.293   0.824   3.671  0.00  0.00     0.083 H 
ATOM     14  C7  <0> d           1.083   1.823   3.944  0.00  0.00    -0.082 A 
ATOM     15  H10 <0> d           2.880   2.372   4.963  0.00  0.00     0.083 H 
ATOM     16  C6  <0> d           0.520   1.028   2.963  0.00  0.00    -0.076 A 
ATOM     17  H9  <0> d           0.463   2.502   4.511  0.00  0.00     0.083 H 
ATOM     18  H8  <0> d          -0.540   1.085   2.764  0.00  0.00     0.084 H 
ENDBRANCH   4   8
BRANCH   1  19
ATOM     19  C1  <0> d          -0.019   1.526   0.010  0.00  0.00    -0.072 C 
ATOM     20  H3  <0> d           1.004   1.903   0.003  0.00  0.00     0.028 H 
ATOM     21  H4  <0> d          -0.546   1.887  -0.873  0.00  0.00     0.028 H 
ATOM     22  H5  <0> d          -0.529   1.877   0.907  0.00  0.00     0.028 H 
ENDBRANCH   1  19
TORSDOF 2
