REMARK  7 active torsions:
REMARK  status: ('A' for Active; 'I' for Inactive)
REMARK    1  A    between atoms: C1_1  and  C2_2 
REMARK    2  A    between atoms: C2_2  and  O1_3 
REMARK    3  A    between atoms: O1_3  and  C3_4 
REMARK    4  A    between atoms: C3_4  and  C4_5 
REMARK    5  A    between atoms: C4_5  and  C5_6 
REMARK    6  A    between atoms: C5_6  and  C6_8 
REMARK    7  A    between atoms: C6_8  and  O3_9 
ROOT
ATOM      1  C3  <0> d           1.959   5.405   0.012  0.00  0.00     0.026 C 
ATOM      2  H6  <0> d           1.357   5.619  -0.871  0.00  0.00     0.074 H 
ATOM      3  H7  <0> d           1.374   5.610   0.909  0.00  0.00     0.074 H 
ENDROOT
BRANCH   1   4
ATOM      4  O1  <0> d           3.125   6.231   0.006  0.00  0.00    -0.391 OA
BRANCH   4   5
ATOM      5  C2  <0> d           2.845   7.632   0.016  0.00  0.00     0.016 C 
ATOM      6  H4  <0> d           2.262   7.893  -0.867  0.00  0.00     0.073 H 
ATOM      7  H5  <0> d           2.279   7.883   0.913  0.00  0.00     0.073 H 
BRANCH   5   8
ATOM      8  C1  <0> d           4.160   8.415   0.007  0.00  0.00    -0.056 C 
ATOM      9  H1  <0> d           3.946   9.484   0.015  0.00  0.00     0.030 H 
ATOM     10  H2  <0> d           4.743   8.155   0.891  0.00  0.00     0.030 H 
ATOM     11  H3  <0> d           4.726   8.165  -0.889  0.00  0.00     0.030 H 
ENDBRANCH   5   8
ENDBRANCH   4   5
ENDBRANCH   1   4
BRANCH   1  12
ATOM     12  C4  <0> d           2.377   3.933   0.001  0.00  0.00     0.012 C 
ATOM     13  H8  <0> d           2.929   3.737   0.811  0.00  0.00     0.047 H 
ATOM     14  H9  <0> d           2.962   3.729  -0.896  0.00  0.00     0.047 H 
BRANCH  12  15
ATOM     15  C5  <0> d           1.147   3.062   0.008  0.00  0.00     0.152 C 
ATOM     16  O2  <0> d           0.050   3.567   0.021  0.00  0.00    -0.296 OA
BRANCH  15  17
ATOM     17  C6  <0> d           1.286   1.562  -0.002  0.00  0.00     0.071 C 
ATOM     18  H10 <0> d           1.794   1.269   0.808  0.00  0.00     0.085 H 
ATOM     19  H11 <0> d           1.823   1.252  -0.899  0.00  0.00     0.085 H 
BRANCH  17  20
ATOM     20  O3  <0> d          -0.011   0.963   0.007  0.00  0.00    -0.394 OA
ATOM     21  H12 <0> d           0.002  -0.004   0.002  0.00  0.00     0.209 HD
ENDBRANCH  17  20
ENDBRANCH  15  17
ENDBRANCH  12  15
ENDBRANCH   1  12
TORSDOF 7
