REMARK  1 active torsions:
REMARK  status: ('A' for Active; 'I' for Inactive)
REMARK    1  A    between atoms: C1_1  and  C2_2 
ROOT
ATOM      1  C2  <0> d           4.005   1.728  -0.026  0.00  0.00    -0.060 A 
ATOM      2  C3  <0> d           3.250   2.908  -0.012  0.00  0.00    -0.075 A 
ATOM      3  C4  <0> d           1.894   2.891   0.000  0.00  0.00    -0.050 A 
ATOM      4  C5  <0> d           1.218   1.656  -0.001  0.00  0.00     0.117 A 
ATOM      5  C6  <0> d           2.018   0.406  -0.015  0.00  0.00     0.117 A 
ATOM      6  C7  <0> d           3.423   0.503  -0.028  0.00  0.00    -0.045 A 
ATOM      7  N1  <0> d           1.098  -0.527  -0.011  0.00  0.00    -0.103 NA
ATOM      8  O1  <0> d           0.002  -0.004   0.002  0.00  0.00    -0.106 OA
ATOM      9  N2  <0> d          -0.014   1.210   0.009  0.00  0.00    -0.103 NA
ATOM     10  H4  <0> d           3.762   3.858  -0.012  0.00  0.00     0.084 H 
ATOM     11  H5  <0> d           1.338   3.817   0.011  0.00  0.00     0.087 H 
ATOM     12  H6  <0> d           4.031  -0.389  -0.038  0.00  0.00     0.088 H 
ENDROOT
BRANCH   1  13
ATOM     13  C1  <0> d           5.509   1.823  -0.040  0.00  0.00    -0.051 C 
ATOM     14  H1  <0> d           5.862   1.852  -1.070  0.00  0.00     0.033 H 
ATOM     15  H2  <0> d           5.821   2.731   0.476  0.00  0.00     0.033 H 
ATOM     16  H3  <0> d           5.933   0.955   0.466  0.00  0.00     0.033 H 
ENDBRANCH   1  13
TORSDOF 1
