REMARK  4 active torsions:
REMARK  status: ('A' for Active; 'I' for Inactive)
REMARK    1  A    between atoms: C1_1  and  O1_2 
REMARK    2  A    between atoms: O1_2  and  C2_3 
REMARK    3  A    between atoms: C2_3  and  C3_5 
REMARK    4  A    between atoms: C7_10  and  N2_11 
ROOT
ATOM      1  C3  <0> d          -1.154   3.211   0.033  0.00  0.00     0.084 A 
ATOM      2  C4  <0> d          -1.246   1.813   0.007  0.00  0.00    -0.062 A 
ATOM      3  C5  <0> d          -0.075   1.078  -0.005  0.00  0.00    -0.065 A 
ATOM      4  C6  <0> d           1.143   1.736  -0.002  0.00  0.00     0.004 A 
ATOM      5  N1  <0> d           1.209   3.052   0.018  0.00  0.00    -0.243 NA
ATOM      6  C7  <0> d           0.119   3.805   0.036  0.00  0.00     0.137 A 
ATOM      7  H4  <0> d          -2.208   1.322  -0.001  0.00  0.00     0.085 H 
ATOM      8  H5  <0> d          -0.110  -0.001  -0.021  0.00  0.00     0.085 H 
ATOM      9  H6  <0> d           2.056   1.159  -0.015  0.00  0.00     0.114 H 
ENDROOT
BRANCH   1  10
ATOM     10  C2  <0> d          -2.370   4.042   0.052  0.00  0.00     0.296 C 
ATOM     11  O2  <0> d          -2.281   5.251  -0.034  0.00  0.00    -0.259 OA
BRANCH  10  12
ATOM     12  O1  <0> d          -3.581   3.462   0.164  0.00  0.00    -0.322 OA
BRANCH  12  13
ATOM     13  C1  <0> d          -4.736   4.343   0.175  0.00  0.00     0.013 C 
ATOM     14  H1  <0> d          -5.653   3.744   0.271  0.00  0.00     0.067 H 
ATOM     15  H2  <0> d          -4.768   4.917  -0.762  0.00  0.00     0.067 H 
ATOM     16  H3  <0> d          -4.660   5.035   1.027  0.00  0.00     0.067 H 
ENDBRANCH  12  13
ENDBRANCH  10  12
ENDBRANCH   1  10
BRANCH   6  17
ATOM     17  N2  <0> d           0.236   5.182   0.056  0.00  0.00    -0.383 N 
ATOM     18  H7  <0> d           1.231   5.650   0.059  0.00  0.00     0.157 HD
ATOM     19  H8  <0> d          -0.667   5.810   0.070  0.00  0.00     0.157 HD
ENDBRANCH   6  17
TORSDOF 4
