REMARK  4 active torsions:
REMARK  status: ('A' for Active; 'I' for Inactive)
REMARK    1  A    between atoms: C1_1  and  C2_2 
REMARK    2  A    between atoms: C4_4  and  C8_10 
REMARK    3  A    between atoms: C5_5  and  O1_9 
REMARK    4  A    between atoms: C6_6  and  N1_8 
ROOT
ATOM      1  C2  <0> d           0.002  -0.004   0.002  0.00  0.00    -0.059 A 
ATOM      2  C3  <0> d           0.006  -0.687  -1.200  0.00  0.00    -0.069 A 
ATOM      3  C4  <0> d           0.025  -2.070  -1.214  0.00  0.00    -0.026 A 
ATOM      4  C5  <0> d           0.041  -2.775  -0.022  0.00  0.00     0.097 A 
ATOM      5  C6  <0> d           0.037  -2.087   1.190  0.00  0.00     0.060 A 
ATOM      6  C7  <0> d           0.023  -0.700   1.196  0.00  0.00    -0.049 A 
ATOM      7  H4  <0> d          -0.007  -0.139  -2.131  0.00  0.00     0.085 H 
ATOM      8  H5  <0> d           0.025  -0.164   2.134  0.00  0.00     0.087 H 
ENDROOT
BRANCH   1   9
ATOM      9  C1  <0> d          -0.018   1.503   0.010  0.00  0.00    -0.051 C 
ATOM     10  H1  <0> d           1.004   1.880   0.003  0.00  0.00     0.033 H 
ATOM     11  H2  <0> d          -0.545   1.864  -0.873  0.00  0.00     0.033 H 
ATOM     12  H3  <0> d          -0.529   1.854   0.907  0.00  0.00     0.033 H 
ENDBRANCH   1   9
BRANCH   5  13
ATOM     13  N1  <0> d           0.052  -2.794   2.398  0.00  0.00    -0.397 N 
ATOM     14  H6  <0> d           0.065  -3.764   2.392  0.00  0.00     0.156 HD
ATOM     15  H7  <0> d           0.050  -2.314   3.241  0.00  0.00     0.156 HD
ENDBRANCH   5  13
BRANCH   3  16
ATOM     16  C8  <0> d           0.028  -2.810  -2.527  0.00  0.00    -0.049 C 
ATOM     17  H9  <0> d           1.057  -2.974  -2.849  0.00  0.00     0.033 H 
ATOM     18  H10 <0> d          -0.471  -3.771  -2.403  0.00  0.00     0.033 H 
ATOM     19  H11 <0> d          -0.498  -2.220  -3.278  0.00  0.00     0.033 H 
ENDBRANCH   3  16
BRANCH   4  20
ATOM     20  O1  <0> d           0.059  -4.134  -0.034  0.00  0.00    -0.358 OA
ATOM     21  H8  <0> d           0.948  -4.516  -0.042  0.00  0.00     0.217 HD
ENDBRANCH   4  20
TORSDOF 4
