REMARK  5 active torsions:
REMARK  status: ('A' for Active; 'I' for Inactive)
REMARK    1  A    between atoms: C1_1  and  O1_2 
REMARK    2  A    between atoms: O1_2  and  C2_3 
REMARK    3  A    between atoms: C2_3  and  C3_4 
REMARK    4  A    between atoms: C2_3  and  O2_6 
REMARK    5  A    between atoms: O2_6  and  C5_7 
ROOT
ATOM      1  C2  <0> d           1.122   2.121  -0.353  0.00  0.00     0.146 C 
ATOM      2  H4  <0> d           1.104   3.179  -0.616  0.00  0.00     0.135 H 
ENDROOT
BRANCH   1   3
ATOM      3  O1  <0> d           1.503   1.977   1.016  0.00  0.00    -0.363 OA
BRANCH   3   4
ATOM      4  C1  <0> d           2.447   2.953   1.463  0.00  0.00     0.007 C 
ATOM      5  H1  <0> d           2.773   2.708   2.473  0.00  0.00     0.066 H 
ATOM      6  H2  <0> d           3.308   2.958   0.794  0.00  0.00     0.066 H 
ATOM      7  H3  <0> d           1.980   3.938   1.460  0.00  0.00     0.066 H 
ENDBRANCH   3   4
ENDBRANCH   1   3
BRANCH   1   8
ATOM      8  C3  <0> d          -0.249   1.530  -0.558  0.00  0.00    -0.060 C 
ATOM      9  C4  <0> d          -1.228   2.281  -0.997  0.00  0.00    -0.120 C 
ATOM     10  H6  <0> d          -1.054   3.326  -1.208  0.00  0.00     0.066 H 
ATOM     11  H7  <0> d          -2.209   1.856  -1.148  0.00  0.00     0.066 H 
ATOM     12  H5  <0> d          -0.423   0.485  -0.347  0.00  0.00     0.083 H 
ENDBRANCH   1   8
BRANCH   1  13
ATOM     13  O2  <0> d           2.064   1.440  -1.184  0.00  0.00    -0.363 OA
BRANCH  13  14
ATOM     14  C5  <0> d           3.320   2.110  -1.310  0.00  0.00     0.007 C 
ATOM     15  H8  <0> d           3.150   3.175  -1.463  0.00  0.00     0.066 H 
ATOM     16  H9  <0> d           3.903   1.962  -0.400  0.00  0.00     0.066 H 
ATOM     17  H10 <0> d           3.866   1.703  -2.161  0.00  0.00     0.066 H 
ENDBRANCH  13  14
ENDBRANCH   1  13
TORSDOF 5
