REMARK  1 active torsions:
REMARK  status: ('A' for Active; 'I' for Inactive)
REMARK    1  A    between atoms: C1_1  and  N1_2 
ROOT
ATOM      1  N1  <0> d           0.002  -0.004   0.002  0.00  0.00    -0.254 N 
ATOM      2  C2  <0> d           0.024  -0.830   1.099  0.00  0.00     0.084 A 
ATOM      3  C3  <0> d           0.034  -0.604   2.474  0.00  0.00    -0.052 A 
ATOM      4  C4  <0> d           0.056  -1.656   3.340  0.00  0.00    -0.060 A 
ATOM      5  C5  <0> d           0.070  -2.974   2.858  0.00  0.00     0.047 A 
ATOM      6  C6  <0> d           0.060  -3.219   1.491  0.00  0.00    -0.031 A 
ATOM      7  C7  <0> d           0.037  -2.144   0.597  0.00  0.00     0.110 A 
ATOM      8  N2  <0> d           0.023  -2.066  -0.755  0.00  0.00    -0.130 NA
ATOM      9  N3  <0> d          -0.003  -0.835  -1.127  0.00  0.00    -0.065 NA
ATOM     10  C8  <0> d           0.093  -4.070   3.779  0.00  0.00     0.099 C 
ATOM     11  N4  <0> d           0.112  -4.939   4.510  0.00  0.00    -0.191 NA
ATOM     12  H4  <0> d           0.024   0.406   2.854  0.00  0.00     0.087 H 
ATOM     13  H5  <0> d           0.063  -1.474   4.404  0.00  0.00     0.086 H 
ATOM     14  H6  <0> d           0.071  -4.234   1.121  0.00  0.00     0.089 H 
ENDROOT
BRANCH   1  15
ATOM     15  C1  <0> d          -0.018   1.461   0.010  0.00  0.00     0.004 C 
ATOM     16  H1  <0> d          -0.007   1.822   1.049  0.00  0.00     0.059 H 
ATOM     17  H2  <0> d          -0.928   1.818  -0.493  0.00  0.00     0.059 H 
ATOM     18  H3  <0> d           0.867   1.842  -0.520  0.00  0.00     0.059 H 
ENDBRANCH   1  15
TORSDOF 1
