REMARK  1 active torsions:
REMARK  status: ('A' for Active; 'I' for Inactive)
REMARK    1  A    between atoms: C1_1  and  N1_2 
ROOT
ATOM      1  N1  <0> d           0.002  -0.004   0.002  0.00  0.00    -0.267 N 
ATOM      2  C2  <0> d           0.008  -0.802  -1.107  0.00  0.00     0.150 A 
ATOM      3  C3  <0> d           0.029  -2.127  -0.657  0.00  0.00     0.111 A 
ATOM      4  C4  <0> d           0.035  -2.084   0.749  0.00  0.00     0.052 A 
ATOM      5  N2  <0> d           0.025  -0.835   1.130  0.00  0.00    -0.182 NA
ATOM      6  N3  <0> d           0.039  -3.135  -1.565  0.00  0.00    -0.240 NA
ATOM      7  C5  <0> d           0.030  -2.888  -2.842  0.00  0.00     0.067 A 
ATOM      8  N4  <0> d           0.011  -1.622  -3.336  0.00  0.00    -0.316 N 
ATOM      9  C6  <0> d          -0.002  -0.560  -2.501  0.00  0.00     0.277 A 
ATOM     10  O1  <0> d          -0.019   0.578  -2.937  0.00  0.00    -0.266 OA
ATOM     11  H4  <0> d           0.050  -2.942   1.405  0.00  0.00     0.121 H 
ATOM     12  H5  <0> d           0.039  -3.718  -3.533  0.00  0.00     0.143 H 
ATOM     13  H6  <0> d           0.005  -1.480  -4.295  0.00  0.00     0.170 HD
ENDROOT
BRANCH   1  14
ATOM     14  C1  <0> d          -0.018   1.461   0.010  0.00  0.00     0.003 C 
ATOM     15  H1  <0> d           1.005   1.838   0.002  0.00  0.00     0.059 H 
ATOM     16  H2  <0> d          -0.545   1.822  -0.873  0.00  0.00     0.059 H 
ATOM     17  H3  <0> d          -0.528   1.812   0.907  0.00  0.00     0.059 H 
ENDBRANCH   1  14
TORSDOF 1
