REMARK  2 active torsions:
REMARK  status: ('A' for Active; 'I' for Inactive)
REMARK    1  A    between atoms: C6_9  and  C8_11 
REMARK    2  A    between atoms: C8_11  and  O1_12 
ROOT
ATOM      1  C1  <0> d           1.158   1.778   0.001  0.00  0.00    -0.081 A 
ATOM      2  C2  <0> d          -0.013   1.076   0.008  0.00  0.00    -0.069 A 
ATOM      3  C3  <0> d          -1.231   1.763   0.017  0.00  0.00     0.012 A 
ATOM      4  C4  <0> d          -2.630   1.347   0.035  0.00  0.00     0.034 A 
ATOM      5  N1  <0> d          -3.365   2.422   0.049  0.00  0.00    -0.186 NA
ATOM      6  N2  <0> d          -2.551   3.560   0.047  0.00  0.00    -0.277 N 
ATOM      7  H1  <0> d          -3.006   4.561   0.057  0.00  0.00     0.189 HD
ATOM      8  C5  <0> d          -1.237   3.171   0.031  0.00  0.00     0.070 A 
ATOM      9  C6  <0> d          -0.027   3.860   0.024  0.00  0.00    -0.006 A 
ATOM     10  C7  <0> d           1.150   3.167   0.008  0.00  0.00    -0.072 A 
ATOM     11  H2  <0> d           2.099   1.249  -0.012  0.00  0.00     0.083 H 
ATOM     12  H3  <0> d           0.002  -0.004   0.002  0.00  0.00     0.085 H 
ATOM     13  H4  <0> d          -2.991   0.329   0.033  0.00  0.00     0.118 H 
ATOM     14  H5  <0> d           2.086   3.706   0.002  0.00  0.00     0.084 H 
ENDROOT
BRANCH   9  15
ATOM     15  C8  <0> d          -0.017   5.367   0.032  0.00  0.00     0.043 C 
ATOM     16  H6  <0> d          -0.541   5.742  -0.859  0.00  0.00     0.081 H 
ATOM     17  H7  <0> d          -0.524   5.733   0.937  0.00  0.00     0.081 H 
BRANCH  15  18
ATOM     18  O1  <0> d           1.334   5.834   0.021  0.00  0.00    -0.396 OA
ATOM     19  H8  <0> d           1.543   6.914   0.024  0.00  0.00     0.209 HD
ENDBRANCH  15  18
ENDBRANCH   9  15
TORSDOF 2
