REMARK  3 active torsions:
REMARK  status: ('A' for Active; 'I' for Inactive)
REMARK    1  A    between atoms: C3_3  and  C5_6 
REMARK    2  A    between atoms: C6_7  and  C7_8 
REMARK    3  A    between atoms: C7_8  and  O2_9 
ROOT
ATOM      1  C5  <0> d           1.904   3.795   0.819  0.00  0.00    -0.052 C 
ATOM      2  C6  <0> d           1.147   3.062   0.008  0.00  0.00    -0.078 C 
ATOM      3  H4  <0> d           2.619   3.315   1.471  0.00  0.00     0.087 H 
ATOM      4  H5  <0> d           0.432   3.542  -0.644  0.00  0.00     0.080 H 
ENDROOT
BRANCH   1   5
ATOM      5  C3  <0> d           1.768   5.260   0.828  0.00  0.00     0.074 A 
ATOM      6  C2  <0> d           2.474   6.124   1.609  0.00  0.00    -0.049 A 
ATOM      7  C1  <0> d           2.025   7.419   1.290  0.00  0.00    -0.059 A 
ATOM      8  H2  <0> d           3.233   5.865   2.333  0.00  0.00     0.087 H 
ATOM      9  C4  <0> d           1.072   7.286   0.345  0.00  0.00     0.019 A 
ATOM     10  H1  <0> d           2.375   8.345   1.721  0.00  0.00     0.086 H 
ATOM     11  O1  <0> d           0.919   5.980   0.069  0.00  0.00    -0.323 OA
ATOM     12  H3  <0> d           0.522   8.094  -0.113  0.00  0.00     0.123 H 
ENDBRANCH   1   5
BRANCH   2  13
ATOM     13  C7  <0> d           1.286   1.562  -0.002  0.00  0.00     0.032 C 
ATOM     14  H6  <0> d           1.840   1.243   0.881  0.00  0.00     0.080 H 
ATOM     15  H7  <0> d           1.823   1.252  -0.899  0.00  0.00     0.080 H 
BRANCH  13  16
ATOM     16  O2  <0> d          -0.011   0.963   0.007  0.00  0.00    -0.397 OA
ATOM     17  H8  <0> d           0.002  -0.004   0.002  0.00  0.00     0.209 HD
ENDBRANCH  13  16
ENDBRANCH   2  13
TORSDOF 3
