REMARK  3 active torsions:
REMARK  status: ('A' for Active; 'I' for Inactive)
REMARK    1  A    between atoms: C1_1  and  O1_2 
REMARK    2  A    between atoms: O1_2  and  C2_3 
REMARK    3  A    between atoms: C2_3  and  C3_5 
ROOT
ATOM      1  C3  <0> d          -1.244  -2.135   0.003  0.00  0.00     0.215 C 
ATOM      2  H1  <0> d          -0.475  -2.540   0.661  0.00  0.00     0.104 H 
ATOM      3  C4  <0> d          -1.034  -2.662  -1.433  0.00  0.00    -0.025 C 
ATOM      4  C5  <0> d          -2.019  -3.858  -1.514  0.00  0.00    -0.038 C 
ATOM      5  C6  <0> d          -3.205  -3.346  -0.659  0.00  0.00     0.113 C 
ATOM      6  N1  <0> d          -2.575  -2.588   0.447  0.00  0.00     0.097 N 
ATOM      7  H5  <0> d          -1.296  -1.898  -2.166  0.00  0.00     0.036 H 
ATOM      8  H6  <0> d          -0.007  -2.998  -1.574  0.00  0.00     0.036 H 
ATOM      9  H7  <0> d          -2.329  -4.040  -2.543  0.00  0.00     0.035 H 
ATOM     10  H8  <0> d          -1.580  -4.755  -1.075  0.00  0.00     0.035 H 
ATOM     11  H9  <0> d          -3.845  -2.693  -1.252  0.00  0.00     0.079 H 
ATOM     12  H10 <0> d          -3.778  -4.185  -0.265  0.00  0.00     0.079 H 
ATOM     13  H11 <0> d          -2.505  -3.152   1.281  0.00  0.00     0.317 HD
ENDROOT
BRANCH   1  14
ATOM     14  C2  <0> d          -1.185  -0.630   0.010  0.00  0.00     0.292 C 
ATOM     15  O2  <0> d          -2.208   0.015   0.023  0.00  0.00    -0.263 OA
BRANCH  14  16
ATOM     16  O1  <0> d           0.002  -0.004   0.002  0.00  0.00    -0.325 OA
BRANCH  16  17
ATOM     17  C1  <0> d          -0.017   1.425   0.010  0.00  0.00     0.013 C 
ATOM     18  H2  <0> d           1.005   1.802   0.002  0.00  0.00     0.067 H 
ATOM     19  H3  <0> d          -0.544   1.786  -0.873  0.00  0.00     0.067 H 
ATOM     20  H4  <0> d          -0.527   1.776   0.907  0.00  0.00     0.067 H 
ENDBRANCH  16  17
ENDBRANCH  14  16
ENDBRANCH   1  14
TORSDOF 3
