REMARK  4 active torsions:
REMARK  status: ('A' for Active; 'I' for Inactive)
REMARK    1  A    between atoms: C1_1  and  C2_2 
REMARK    2  A    between atoms: C4_4  and  C7_8 
REMARK    3  A    between atoms: C7_8  and  C8_9 
REMARK    4  A    between atoms: C8_9  and  O1_10 
ROOT
ATOM      1  C2  <0> d          -0.718   1.572   1.248  0.00  0.00    -0.044 A 
ATOM      2  C3  <0> d          -0.005   1.809   2.414  0.00  0.00    -0.068 A 
ATOM      3  C4  <0> d          -0.696   2.255   3.530  0.00  0.00    -0.038 A 
ATOM      4  C5  <0> d          -2.062   2.448   3.444  0.00  0.00     0.008 A 
ATOM      5  N1  <0> d          -2.707   2.212   2.319  0.00  0.00    -0.272 NA
ATOM      6  C6  <0> d          -2.082   1.792   1.236  0.00  0.00     0.007 A 
ATOM      7  H4  <0> d           1.062   1.650   2.451  0.00  0.00     0.085 H 
ATOM      8  H5  <0> d          -2.607   2.796   4.309  0.00  0.00     0.115 H 
ATOM      9  H6  <0> d          -2.644   1.614   0.331  0.00  0.00     0.115 H 
ENDROOT
BRANCH   3  10
ATOM     10  C7  <0> d           0.034   2.528   4.820  0.00  0.00    -0.020 C 
ATOM     11  H7  <0> d          -0.635   2.345   5.661  0.00  0.00     0.043 H 
ATOM     12  H8  <0> d           0.899   1.870   4.894  0.00  0.00     0.043 H 
BRANCH  10  13
ATOM     13  C8  <0> d           0.498   3.986   4.845  0.00  0.00     0.020 C 
ATOM     14  H9  <0> d           1.167   4.168   4.004  0.00  0.00     0.074 H 
ATOM     15  H10 <0> d          -0.368   4.644   4.771  0.00  0.00     0.074 H 
BRANCH  13  16
ATOM     16  O1  <0> d           1.190   4.244   6.068  0.00  0.00    -0.401 OA
ATOM     17  H11 <0> d           1.513   5.151   6.153  0.00  0.00     0.209 HD
ENDBRANCH  13  16
ENDBRANCH  10  13
ENDBRANCH   3  10
BRANCH   1  18
ATOM     18  C1  <0> d          -0.013   1.086   0.008  0.00  0.00    -0.050 C 
ATOM     19  H1  <0> d           0.002  -0.004   0.002  0.00  0.00     0.033 H 
ATOM     20  H2  <0> d           1.010   1.463   0.000  0.00  0.00     0.033 H 
ATOM     21  H3  <0> d          -0.540   1.447  -0.875  0.00  0.00     0.033 H 
ENDBRANCH   1  18
TORSDOF 4
