REMARK  3 active torsions:
REMARK  status: ('A' for Active; 'I' for Inactive)
REMARK    1  A    between atoms: C1_1  and  N1_2 
REMARK    2  A    between atoms: N1_2  and  C2_3 
REMARK    3  A    between atoms: N1_2  and  C3_4 
ROOT
ATOM      1  C3  <0> d          -0.016   1.365   0.021  0.00  0.00     0.684 A 
ATOM      2  N2  <0> d           1.161   2.048   0.014  0.00  0.00    -0.156 N 
ATOM      3  H1  <0> d           2.113   1.498   0.013  0.00  0.00     0.187 HD
ATOM      4  C4  <0> d           1.160   3.397   0.009  0.00  0.00     0.263 A 
ATOM      5  O1  <0> d           2.211   4.019   0.002  0.00  0.00    -0.268 OA
ATOM      6  C5  <0> d          -0.067   4.072   0.024  0.00  0.00     0.035 A 
ATOM      7  C6  <0> d          -1.235   3.329   0.032  0.00  0.00     0.198 A 
ATOM      8  N3  <0> d          -1.173   1.994   0.025  0.00  0.00    -0.167 N 
ATOM      9  O2  <0> d          -2.436   3.953   0.047  0.00  0.00    -0.172 OA
ATOM     10  H8  <0> d          -0.109   5.071   0.029  0.00  0.00     0.099 H 
ATOM     11  H9  <0> d          -2.099   1.401   0.021  0.00  0.00     0.186 HD
ENDROOT
BRANCH   1  12
ATOM     12  N1  <0> d           0.002  -0.004   0.026  0.00  0.00    -0.226 N 
BRANCH  12  13
ATOM     13  C1  <0> d          -1.256  -0.754   0.039  0.00  0.00    -0.003 C 
ATOM     14  H2  <0> d          -2.102  -0.050   0.045  0.00  0.00     0.057 H 
ATOM     15  H3  <0> d          -1.298  -1.384   0.940  0.00  0.00     0.057 H 
ATOM     16  H4  <0> d          -1.314  -1.390  -0.856  0.00  0.00     0.057 H 
ENDBRANCH  12  13
BRANCH  12  17
ATOM     17  C2  <0> d           1.281  -0.719   0.016  0.00  0.00    -0.003 C 
ATOM     18  H5  <0> d           2.107   0.007   0.006  0.00  0.00     0.057 H 
ATOM     19  H6  <0> d           1.340  -1.354  -0.880  0.00  0.00     0.057 H 
ATOM     20  H7  <0> d           1.356  -1.348   0.916  0.00  0.00     0.057 H 
ENDBRANCH  12  17
ENDBRANCH   1  12
TORSDOF 3
