REMARK  6 active torsions:
REMARK  status: ('A' for Active; 'I' for Inactive)
REMARK    1  A    between atoms: C1_1  and  C2_2 
REMARK    2  A    between atoms: C2_2  and  C3_3 
REMARK    3  A    between atoms: C2_2  and  C4_4 
REMARK    4  A    between atoms: C2_2  and  N1_8 
REMARK    5  A    between atoms: C4_4  and  O2_6 
REMARK    6  A    between atoms: O2_6  and  C5_7 
ROOT
ATOM      1  C2  <0> d           0.002  -0.004   0.002  0.00  0.00     0.234 C 
ENDROOT
BRANCH   1   2
ATOM      2  C1  <0> d          -0.019   1.526   0.010  0.00  0.00    -0.034 C 
ATOM      3  H1  <0> d           1.004   1.903   0.003  0.00  0.00     0.031 H 
ATOM      4  H2  <0> d          -0.546   1.887  -0.873  0.00  0.00     0.031 H 
ATOM      5  H3  <0> d          -0.529   1.877   0.907  0.00  0.00     0.031 H 
ENDBRANCH   1   2
BRANCH   1   6
ATOM      6  C3  <0> d           0.742  -0.511   1.242  0.00  0.00    -0.034 C 
ATOM      7  H4  <0> d           0.232  -0.159   2.138  0.00  0.00     0.031 H 
ATOM      8  H5  <0> d           0.757  -1.601   1.236  0.00  0.00     0.031 H 
ATOM      9  H6  <0> d           1.765  -0.134   1.234  0.00  0.00     0.031 H 
ENDBRANCH   1   6
BRANCH   1  10
ATOM     10  C4  <0> d          -1.412  -0.526   0.013  0.00  0.00     0.296 C 
ATOM     11  O1  <0> d          -1.937  -0.826   1.059  0.00  0.00    -0.262 OA
BRANCH  10  12
ATOM     12  O2  <0> d          -2.087  -0.657  -1.140  0.00  0.00    -0.324 OA
BRANCH  12  13
ATOM     13  C5  <0> d          -3.423  -1.157  -1.055  0.00  0.00     0.013 C 
ATOM     14  H7  <0> d          -3.411  -2.151  -0.608  0.00  0.00     0.067 H 
ATOM     15  H8  <0> d          -4.024  -0.488  -0.438  0.00  0.00     0.067 H 
ATOM     16  H9  <0> d          -3.854  -1.214  -2.055  0.00  0.00     0.067 H 
ENDBRANCH  12  13
ENDBRANCH  10  12
ENDBRANCH   1  10
BRANCH   1  17
ATOM     17  N1  <0> d           0.690  -0.478  -1.207  0.00  0.00     0.097 N 
ATOM     18  H10 <0> d           0.184  -0.211  -2.038  0.00  0.00     0.314 HD
ATOM     19  H11 <0> d           1.640  -0.141  -1.237  0.00  0.00     0.314 HD
ENDBRANCH   1  17
TORSDOF 6
