REMARK  6 active torsions:
REMARK  status: ('A' for Active; 'I' for Inactive)
REMARK    1  A    between atoms: C1_1  and  C2_2 
REMARK    2  A    between atoms: C2_2  and  C3_3 
REMARK    3  A    between atoms: C3_3  and  C4_4 
REMARK    4  A    between atoms: C3_3  and  C6_6 
REMARK    5  A    between atoms: C3_3  and  O1_8 
REMARK    6  A    between atoms: C4_4  and  C5_5 
ROOT
ATOM      1  C3  <0> d          -1.176   3.222   0.025  0.00  0.00     0.074 C 
ENDROOT
BRANCH   1   2
ATOM      2  C2  <0> d          -1.910   3.729  -1.218  0.00  0.00    -0.036 C 
ATOM      3  H4  <0> d          -2.956   3.426  -1.171  0.00  0.00     0.037 H 
ATOM      4  H5  <0> d          -1.848   4.817  -1.258  0.00  0.00     0.037 H 
BRANCH   2   5
ATOM      5  C1  <0> d          -1.263   3.135  -2.470  0.00  0.00    -0.074 C 
ATOM      6  H1  <0> d          -1.325   2.047  -2.430  0.00  0.00     0.027 H 
ATOM      7  H2  <0> d          -1.786   3.496  -3.356  0.00  0.00     0.027 H 
ATOM      8  H3  <0> d          -0.217   3.438  -2.517  0.00  0.00     0.027 H 
ENDBRANCH   2   5
ENDBRANCH   1   2
BRANCH   1   9
ATOM      9  C4  <0> d          -1.898   3.716   1.280  0.00  0.00    -0.036 C 
ATOM     10  H6  <0> d          -1.913   4.805   1.286  0.00  0.00     0.037 H 
ATOM     11  H7  <0> d          -2.921   3.338   1.283  0.00  0.00     0.037 H 
BRANCH   9  12
ATOM     12  C5  <0> d          -1.164   3.209   2.524  0.00  0.00    -0.074 C 
ATOM     13  H8  <0> d          -1.150   2.119   2.518  0.00  0.00     0.027 H 
ATOM     14  H9  <0> d          -0.142   3.586   2.521  0.00  0.00     0.027 H 
ATOM     15  H10 <0> d          -1.679   3.560   3.418  0.00  0.00     0.027 H 
ENDBRANCH   9  12
ENDBRANCH   1   9
BRANCH   1  16
ATOM     16  C6  <0> d          -1.156   1.715   0.017  0.00  0.00    -0.080 C 
ATOM     17  C7  <0> d          -0.013   1.076   0.008  0.00  0.00    -0.122 C 
ATOM     18  H12 <0> d           0.002  -0.004   0.002  0.00  0.00     0.066 H 
ATOM     19  H13 <0> d           0.915   1.629   0.002  0.00  0.00     0.066 H 
ATOM     20  H11 <0> d          -2.084   1.163   0.018  0.00  0.00     0.080 H 
ENDBRANCH   1  16
BRANCH   1  21
ATOM     21  O1  <0> d           0.164   3.717   0.021  0.00  0.00    -0.386 OA
ATOM     22  H14 <0> d           0.228   4.682   0.026  0.00  0.00     0.211 HD
ENDBRANCH   1  21
TORSDOF 6
