REMARK  3 active torsions:
REMARK  status: ('A' for Active; 'I' for Inactive)
REMARK    1  A    between atoms: C2_2  and  C5_11 
REMARK    2  A    between atoms: C5_11  and  C6_12 
REMARK    3  A    between atoms: C6_12  and  O3_13 
ROOT
ATOM      1  C1  <0> d           1.153   2.084   0.002  0.00  0.00    -0.007 A 
ATOM      2  C2  <0> d          -0.017   1.411   0.010  0.00  0.00     0.028 A 
ATOM      3  C3  <0> d           0.002  -0.004   0.002  0.00  0.00     0.257 A 
ATOM      4  O1  <0> d          -1.041  -0.633   0.008  0.00  0.00    -0.267 OA
ATOM      5  N1  <0> d           1.186  -0.650  -0.013  0.00  0.00    -0.275 N 
ATOM      6  H1  <0> d           1.208  -1.649  -0.018  0.00  0.00     0.173 HD
ATOM      7  C4  <0> d           2.338   0.046  -0.020  0.00  0.00     0.326 A 
ATOM      8  O2  <0> d           3.398  -0.549  -0.033  0.00  0.00    -0.247 OA
ATOM      9  N2  <0> d           2.333   1.392  -0.013  0.00  0.00    -0.318 N 
ATOM     10  H2  <0> d           3.200   1.890  -0.018  0.00  0.00     0.170 HD
ATOM     11  H3  <0> d           1.158   3.164   0.008  0.00  0.00     0.112 H 
ENDROOT
BRANCH   2  12
ATOM     12  C5  <0> d          -1.327   2.157   0.020  0.00  0.00    -0.015 C 
ATOM     13  H4  <0> d          -2.056   1.603   0.610  0.00  0.00     0.043 H 
ATOM     14  H5  <0> d          -1.179   3.144   0.459  0.00  0.00     0.043 H 
BRANCH  12  15
ATOM     15  C6  <0> d          -1.839   2.308  -1.414  0.00  0.00     0.021 C 
ATOM     16  H6  <0> d          -1.109   2.863  -2.004  0.00  0.00     0.074 H 
ATOM     17  H7  <0> d          -1.986   1.322  -1.853  0.00  0.00     0.074 H 
BRANCH  15  18
ATOM     18  O3  <0> d          -3.080   3.015  -1.404  0.00  0.00    -0.401 OA
ATOM     19  H8  <0> d          -3.465   3.148  -2.281  0.00  0.00     0.209 HD
ENDBRANCH  15  18
ENDBRANCH  12  15
ENDBRANCH   2  12
TORSDOF 3
