REMARK  0 active torsions:
REMARK  status: ('A' for Active; 'I' for Inactive)
ROOT
ATOM      1  C1  <0> d          -0.714   1.573   1.296  0.00  0.00    -0.053 C 
ATOM      2  C2  <0> d          -0.013   1.086   0.008  0.00  0.00    -0.009 C 
ATOM      3  C3  <0> d          -0.716   1.572  -1.222  0.00  0.00     0.127 C 
ATOM      4  O1  <0> d          -1.835   1.197  -1.478  0.00  0.00    -0.298 OA
ATOM      5  C4  <0> d           0.005   2.546  -2.146  0.00  0.00    -0.009 C 
ATOM      6  C5  <0> d           0.055   3.890  -1.427  0.00  0.00    -0.053 C 
ATOM      7  C6  <0> d           1.011   3.799  -0.231  0.00  0.00    -0.009 C 
ATOM      8  C7  <0> d           0.202   3.858   1.018  0.00  0.00     0.127 C 
ATOM      9  O2  <0> d           0.563   4.535   1.950  0.00  0.00    -0.298 OA
ATOM     10  C8  <0> d          -1.082   3.055   1.102  0.00  0.00    -0.009 C 
ATOM     11  H1  <0> d          -1.617   0.987   1.468  0.00  0.00     0.034 H 
ATOM     12  H2  <0> d          -0.038   1.470   2.145  0.00  0.00     0.034 H 
ATOM     13  H3  <0> d          -0.007   0.086  -0.011  0.00  0.00     0.044 H 
ATOM     14  H4  <0> d           1.013   1.455   0.000  0.00  0.00     0.044 H 
ATOM     15  H5  <0> d           0.927   2.208  -2.333  0.00  0.00     0.044 H 
ATOM     16  H6  <0> d          -0.543   2.645  -3.083  0.00  0.00     0.044 H 
ATOM     17  H7  <0> d           0.408   4.658  -2.115  0.00  0.00     0.034 H 
ATOM     18  H8  <0> d          -0.943   4.150  -1.074  0.00  0.00     0.034 H 
ATOM     19  H9  <0> d           1.517   2.937  -0.274  0.00  0.00     0.044 H 
ATOM     20  H10 <0> d           1.712   4.633  -0.256  0.00  0.00     0.044 H 
ATOM     21  H11 <0> d          -1.633   3.366   1.876  0.00  0.00     0.044 H 
ATOM     22  H12 <0> d          -1.651   3.175   0.180  0.00  0.00     0.044 H 
ENDROOT
TORSDOF 0
