REMARK  1 active torsions:
REMARK  status: ('A' for Active; 'I' for Inactive)
REMARK    1  A    between atoms: C2_2  and  C5_9 
ROOT
ATOM      1  C1  <0> d           2.456   3.721   0.004  0.00  0.00     0.017 A 
ATOM      2  C2  <0> d           1.238   3.074   0.007  0.00  0.00     0.139 A 
ATOM      3  N1  <0> d           0.104   3.795   0.021  0.00  0.00    -0.237 NA
ATOM      4  C3  <0> d           0.126   5.099   0.029  0.00  0.00     0.067 A 
ATOM      5  N2  <0> d           1.282   5.790   0.022  0.00  0.00    -0.318 N 
ATOM      6  H1  <0> d           1.265   6.790   0.028  0.00  0.00     0.169 HD
ATOM      7  C4  <0> d           2.464   5.138   0.007  0.00  0.00     0.248 A 
ATOM      8  O1  <0> d           3.516   5.755   0.001  0.00  0.00    -0.268 OA
ATOM      9  H2  <0> d           3.380   3.163  -0.003  0.00  0.00     0.096 H 
ATOM     10  H3  <0> d          -0.809   5.639   0.040  0.00  0.00     0.143 H 
ENDROOT
BRANCH   2  11
ATOM     11  C5  <0> d           1.180   1.590  -0.001  0.00  0.00     0.229 C 
ATOM     12  O2  <0> d           2.207   0.943  -0.014  0.00  0.00    -0.643 OA
ATOM     13  O3  <0> d          -0.011   0.963   0.007  0.00  0.00    -0.643 OA
ENDBRANCH   2  11
TORSDOF 1
