REMARK  3 active torsions:
REMARK  status: ('A' for Active; 'I' for Inactive)
REMARK    1  A    between atoms: C3_4  and  C7_10 
REMARK    2  A    between atoms: C5_6  and  C6_7 
REMARK    3  A    between atoms: C7_10  and  O3_11 
ROOT
ATOM      1  C1  <0> d          -0.017   1.395   0.010  0.00  0.00    -0.050 A 
ATOM      2  C2  <0> d           1.183   2.081   0.002  0.00  0.00     0.004 A 
ATOM      3  N1  <0> d           2.332   1.435  -0.013  0.00  0.00    -0.263 NA
ATOM      4  C3  <0> d           2.395   0.119  -0.021  0.00  0.00     0.058 A 
ATOM      5  C4  <0> d           1.245  -0.647  -0.013  0.00  0.00    -0.041 A 
ATOM      6  C5  <0> d           0.002  -0.004   0.002  0.00  0.00     0.044 A 
ATOM      7  H1  <0> d          -0.955   1.930   0.026  0.00  0.00     0.087 H 
ATOM      8  H2  <0> d           1.179   3.161   0.008  0.00  0.00     0.114 H 
ATOM      9  H3  <0> d           1.304  -1.725  -0.020  0.00  0.00     0.088 H 
ENDROOT
BRANCH   4  10
ATOM     10  C7  <0> d           3.740  -0.560  -0.038  0.00  0.00     0.056 C 
ATOM     11  H4  <0> d           4.287  -0.261  -0.932  0.00  0.00     0.083 H 
ATOM     12  H5  <0> d           4.305  -0.270   0.848  0.00  0.00     0.083 H 
BRANCH  10  13
ATOM     13  O3  <0> d           3.558  -1.978  -0.044  0.00  0.00    -0.395 OA
ATOM     14  H6  <0> d           4.384  -2.481  -0.055  0.00  0.00     0.209 HD
ENDBRANCH  10  13
ENDBRANCH   4  10
BRANCH   6  15
ATOM     15  C6  <0> d          -1.256  -0.782   0.010  0.00  0.00     0.209 C 
ATOM     16  O1  <0> d          -2.333  -0.203   0.024  0.00  0.00    -0.644 OA
ATOM     17  O2  <0> d          -1.220  -2.003   0.003  0.00  0.00    -0.644 OA
ENDBRANCH   6  15
TORSDOF 3
