REMARK  1 active torsions:
REMARK  status: ('A' for Active; 'I' for Inactive)
REMARK    1  A    between atoms: C4_4  and  N2_8 
ROOT
ATOM      1  C1  <0> d           0.111   3.259  -1.637  0.00  0.00    -0.062 C 
ATOM      2  C2  <0> d           1.563   2.851  -1.287  0.00  0.00    -0.062 C 
ATOM      3  C3  <0> d           1.421   2.011  -0.001  0.00  0.00    -0.019 C 
ATOM      4  C4  <0> d          -0.018   1.465   0.010  0.00  0.00     0.242 C 
ATOM      5  C5  <0> d          -0.699   1.991  -1.270  0.00  0.00    -0.019 C 
ATOM      6  C6  <0> d          -0.734   1.952   1.200  0.00  0.00     0.101 C 
ATOM      7  N1  <0> d          -1.286   2.329   2.119  0.00  0.00    -0.195 NA
ATOM      8  H1  <0> d          -0.022   3.482  -2.706  0.00  0.00     0.033 H 
ATOM      9  H2  <0> d          -0.248   4.109  -1.038  0.00  0.00     0.033 H 
ATOM     10  H3  <0> d           1.990   2.267  -2.116  0.00  0.00     0.033 H 
ATOM     11  H4  <0> d           2.169   3.755  -1.125  0.00  0.00     0.033 H 
ATOM     12  H5  <0> d           2.152   1.190  -0.016  0.00  0.00     0.038 H 
ATOM     13  H6  <0> d           1.604   2.650   0.876  0.00  0.00     0.038 H 
ATOM     14  H7  <0> d          -1.750   2.265  -1.096  0.00  0.00     0.038 H 
ATOM     15  H8  <0> d          -0.641   1.267  -2.096  0.00  0.00     0.038 H 
ENDROOT
BRANCH   4  16
ATOM     16  N2  <0> d           0.002  -0.004   0.002  0.00  0.00     0.102 N 
ATOM     17  H9  <0> d          -1.030  -0.385   0.010  0.00  0.00     0.315 HD
ATOM     18  H10 <0> d           0.517  -0.359  -0.903  0.00  0.00     0.315 HD
ENDBRANCH   4  16
TORSDOF 1
