REMARK  3 active torsions:
REMARK  status: ('A' for Active; 'I' for Inactive)
REMARK    1  A    between atoms: C1_1  and  O1_2 
REMARK    2  A    between atoms: O1_2  and  C2_3 
REMARK    3  A    between atoms: C4_5  and  N2_9 
ROOT
ATOM      1  C2  <0> d          -3.618   1.669   0.028  0.00  0.00     0.087 A 
ATOM      2  C3  <0> d          -2.432   0.945   0.019  0.00  0.00    -0.023 A 
ATOM      3  C4  <0> d          -1.230   1.648   0.017  0.00  0.00     0.046 A 
ATOM      4  C5  <0> d          -1.260   3.037   0.030  0.00  0.00     0.027 A 
ATOM      5  N1  <0> d          -2.407   3.687   0.034  0.00  0.00    -0.268 NA
ATOM      6  C6  <0> d          -3.564   3.055   0.035  0.00  0.00     0.034 A 
ATOM      7  H4  <0> d          -2.442  -0.135   0.013  0.00  0.00     0.091 H 
ATOM      8  H5  <0> d          -0.333   3.591   0.034  0.00  0.00     0.118 H 
ATOM      9  H6  <0> d          -4.482   3.625   0.043  0.00  0.00     0.119 H 
ENDROOT
BRANCH   1  10
ATOM     10  O1  <0> d          -4.816   1.027   0.031  0.00  0.00    -0.354 OA
BRANCH  10  11
ATOM     11  C1  <0> d          -5.990   1.842   0.041  0.00  0.00     0.010 C 
ATOM     12  H1  <0> d          -5.999   2.476  -0.846  0.00  0.00     0.066 H 
ATOM     13  H2  <0> d          -6.875   1.206   0.042  0.00  0.00     0.066 H 
ATOM     14  H3  <0> d          -5.990   2.467   0.934  0.00  0.00     0.066 H 
ENDBRANCH  10  11
ENDBRANCH   1  10
BRANCH   3  15
ATOM     15  N2  <0> d          -0.011   0.966   0.007  0.00  0.00    -0.398 N 
ATOM     16  H7  <0> d           0.002  -0.004   0.002  0.00  0.00     0.156 HD
ATOM     17  H8  <0> d           0.822   1.462   0.002  0.00  0.00     0.156 HD
ENDBRANCH   3  15
TORSDOF 3
