REMARK  0 active torsions:
REMARK  status: ('A' for Active; 'I' for Inactive)
ROOT
ATOM      1  C1  <0> d          -0.018   1.457   0.010  0.00  0.00    -0.051 A 
ATOM      2  C2  <0> d           1.265   1.857  -0.000  0.00  0.00    -0.020 A 
ATOM      3  N1  <0> d           2.086   0.760  -0.014  0.00  0.00    -0.351 N 
ATOM      4  H1  <0> d           3.055   0.791  -0.023  0.00  0.00     0.166 HD
ATOM      5  C3  <0> d           1.343  -0.381  -0.013  0.00  0.00     0.119 A 
ATOM      6  C4  <0> d           0.002  -0.004   0.002  0.00  0.00     0.062 A 
ATOM      7  C5  <0> d          -1.026  -1.042   0.006  0.00  0.00     0.225 A 
ATOM      8  C6  <0> d          -0.601  -2.394  -0.005  0.00  0.00     0.182 A 
ATOM      9  C7  <0> d           0.718  -2.678  -0.019  0.00  0.00     0.020 A 
ATOM     10  N2  <0> d           1.668  -1.709  -0.023  0.00  0.00    -0.348 N 
ATOM     11  F1  <0> d          -1.511  -3.393  -0.001  0.00  0.00    -0.200 F 
ATOM     12  O1  <0> d          -2.214  -0.754   0.019  0.00  0.00    -0.284 OA
ATOM     13  H2  <0> d          -0.892   2.091   0.026  0.00  0.00     0.087 H 
ATOM     14  H3  <0> d           1.598   2.885   0.002  0.00  0.00     0.111 H 
ATOM     15  H4  <0> d           1.029  -3.713  -0.028  0.00  0.00     0.116 H 
ATOM     16  H5  <0> d           2.603  -1.965  -0.034  0.00  0.00     0.167 HD
ENDROOT
TORSDOF 0
