REMARK  4 active torsions:
REMARK  status: ('A' for Active; 'I' for Inactive)
REMARK    1  A    between atoms: C1_1  and  C2_2 
REMARK    2  A    between atoms: C2_2  and  C3_3 
REMARK    3  A    between atoms: C5_5  and  C7_9 
REMARK    4  A    between atoms: N1_6  and  C6_8 
ROOT
ATOM      1  C3  <0> d          -2.272   2.200   2.508  0.00  0.00     0.057 A 
ATOM      2  C4  <0> d          -1.100   2.241   3.266  0.00  0.00    -0.023 A 
ATOM      3  C5  <0> d          -0.095   1.822   2.410  0.00  0.00     0.130 A 
ATOM      4  N1  <0> d          -0.698   1.558   1.213  0.00  0.00    -0.267 N 
ATOM      5  N2  <0> d          -1.958   1.793   1.305  0.00  0.00    -0.177 NA
ATOM      6  H6  <0> d          -0.999   2.535   4.301  0.00  0.00     0.090 H 
ENDROOT
BRANCH   1   7
ATOM      7  C2  <0> d          -3.653   2.564   2.989  0.00  0.00    -0.026 C 
ATOM      8  H4  <0> d          -4.287   1.678   2.978  0.00  0.00     0.041 H 
ATOM      9  H5  <0> d          -3.592   2.955   4.005  0.00  0.00     0.041 H 
BRANCH   7  10
ATOM     10  C1  <0> d          -4.249   3.630   2.068  0.00  0.00    -0.071 C 
ATOM     11  H1  <0> d          -5.247   3.894   2.416  0.00  0.00     0.028 H 
ATOM     12  H2  <0> d          -3.614   4.516   2.079  0.00  0.00     0.028 H 
ATOM     13  H3  <0> d          -4.309   3.240   1.052  0.00  0.00     0.028 H 
ENDBRANCH   7  10
ENDBRANCH   1   7
BRANCH   4  14
ATOM     14  C6  <0> d          -0.013   1.086   0.008  0.00  0.00     0.003 C 
ATOM     15  H7  <0> d           0.002  -0.004   0.002  0.00  0.00     0.059 H 
ATOM     16  H8  <0> d           1.010   1.463   0.000  0.00  0.00     0.059 H 
ATOM     17  H9  <0> d          -0.540   1.447  -0.875  0.00  0.00     0.059 H 
ENDBRANCH   4  14
BRANCH   3  18
ATOM     18  C7  <0> d           1.335   1.689   2.727  0.00  0.00     0.228 C 
ATOM     19  O1  <0> d           1.739   1.960   3.841  0.00  0.00    -0.643 OA
ATOM     20  O2  <0> d           2.197   1.266   1.781  0.00  0.00    -0.643 OA
ENDBRANCH   3  18
TORSDOF 4
