REMARK  4 active torsions:
REMARK  status: ('A' for Active; 'I' for Inactive)
REMARK    1  A    between atoms: C1_1  and  C2_2 
REMARK    2  A    between atoms: C2_2  and  O2_4 
REMARK    3  A    between atoms: O2_4  and  C3_5 
REMARK    4  A    between atoms: C3_5  and  C4_6 
ROOT
ATOM      1  C4  <0> d          -2.234   1.322   1.096  0.00  0.00     0.065 C 
ATOM      2  H1  <0> d          -2.406   0.262   0.913  0.00  0.00     0.087 H 
ATOM      3  C5  <0> d          -0.730   1.580   1.269  0.00  0.00    -0.035 C 
ATOM      4  C6  <0> d          -0.013   1.086   0.008  0.00  0.00    -0.046 C 
ATOM      5  C7  <0> d          -0.741   1.584  -1.211  0.00  0.00    -0.082 C 
ATOM      6  C8  <0> d          -1.969   2.027  -1.163  0.00  0.00     0.009 C 
ATOM      7  O3  <0> d          -2.693   2.086  -0.023  0.00  0.00    -0.356 OA
ATOM      8  H7  <0> d          -0.361   1.037   2.139  0.00  0.00     0.037 H 
ATOM      9  H8  <0> d          -0.553   2.648   1.398  0.00  0.00     0.037 H 
ATOM     10  H9  <0> d           0.002  -0.004   0.002  0.00  0.00     0.039 H 
ATOM     11  H10 <0> d           1.010   1.463   0.000  0.00  0.00     0.039 H 
ATOM     12  H11 <0> d          -0.228   1.576  -2.161  0.00  0.00     0.079 H 
ATOM     13  H12 <0> d          -2.430   2.362  -2.080  0.00  0.00     0.122 H 
ENDROOT
BRANCH   1  14
ATOM     14  C3  <0> d          -2.981   1.756   2.358  0.00  0.00     0.053 C 
ATOM     15  H5  <0> d          -2.567   1.236   3.222  0.00  0.00     0.079 H 
ATOM     16  H6  <0> d          -2.870   2.832   2.495  0.00  0.00     0.079 H 
BRANCH  14  17
ATOM     17  O2  <0> d          -4.389   1.427   2.225  0.00  0.00    -0.319 OA
BRANCH  17  18
ATOM     18  C2  <0> d          -5.189   1.744   3.255  0.00  0.00     0.254 C 
ATOM     19  O1  <0> d          -4.729   2.279   4.235  0.00  0.00    -0.266 OA
BRANCH  18  20
ATOM     20  C1  <0> d          -6.662   1.433   3.188  0.00  0.00     0.004 C 
ATOM     21  H2  <0> d          -6.842   0.437   3.591  0.00  0.00     0.041 H 
ATOM     22  H3  <0> d          -7.216   2.168   3.773  0.00  0.00     0.041 H 
ATOM     23  H4  <0> d          -6.995   1.470   2.150  0.00  0.00     0.041 H 
ENDBRANCH  18  20
ENDBRANCH  17  18
ENDBRANCH  14  17
ENDBRANCH   1  14
TORSDOF 4
