REMARK  4 active torsions:
REMARK  status: ('A' for Active; 'I' for Inactive)
REMARK    1  A    between atoms: C1_1  and  C2_2 
REMARK    2  A    between atoms: C2_2  and  C7_8 
REMARK    3  A    between atoms: C7_8  and  O3_10 
REMARK    4  A    between atoms: O3_10  and  C8_11 
ROOT
ATOM      1  C2  <0> d          -0.018   1.510   0.010  0.00  0.00     0.104 C 
ATOM      2  C3  <0> d           1.452   1.978  -0.001  0.00  0.00    -0.042 C 
ATOM      3  C4  <0> d           2.216   0.773  -0.606  0.00  0.00    -0.057 C 
ATOM      4  C5  <0> d           1.458  -0.436  -0.005  0.00  0.00    -0.008 C 
ATOM      5  C6  <0> d           0.002  -0.004   0.002  0.00  0.00     0.145 C 
ATOM      6  O1  <0> d          -0.961  -0.733   0.002  0.00  0.00    -0.297 OA
ATOM      7  H4  <0> d           1.568   2.860  -0.630  0.00  0.00     0.035 H 
ATOM      8  H5  <0> d           1.797   2.180   1.013  0.00  0.00     0.035 H 
ATOM      9  H6  <0> d           3.258   0.775  -0.286  0.00  0.00     0.033 H 
ATOM     10  H7  <0> d           2.147   0.772  -1.694  0.00  0.00     0.033 H 
ATOM     11  H8  <0> d           1.805  -0.625   0.913  0.00  0.00     0.044 H 
ATOM     12  H9  <0> d           1.590  -1.318  -0.632  0.00  0.00     0.044 H 
ENDROOT
BRANCH   1  13
ATOM     13  C1  <0> d          -0.742   2.030  -1.233  0.00  0.00    -0.053 C 
ATOM     14  H1  <0> d          -1.774   1.679  -1.227  0.00  0.00     0.029 H 
ATOM     15  H2  <0> d          -0.730   3.120  -1.232  0.00  0.00     0.029 H 
ATOM     16  H3  <0> d          -0.239   1.662  -2.127  0.00  0.00     0.029 H 
ENDBRANCH   1  13
BRANCH   1  17
ATOM     17  C7  <0> d          -0.708   2.009   1.254  0.00  0.00     0.274 C 
ATOM     18  O2  <0> d          -0.103   2.689   2.049  0.00  0.00    -0.264 OA
BRANCH  17  19
ATOM     19  O3  <0> d          -1.994   1.698   1.480  0.00  0.00    -0.326 OA
BRANCH  19  20
ATOM     20  C8  <0> d          -2.593   2.213   2.698  0.00  0.00     0.013 C 
ATOM     21  H10 <0> d          -3.632   1.888   2.757  0.00  0.00     0.067 H 
ATOM     22  H11 <0> d          -2.045   1.834   3.561  0.00  0.00     0.067 H 
ATOM     23  H12 <0> d          -2.552   3.302   2.691  0.00  0.00     0.067 H 
ENDBRANCH  19  20
ENDBRANCH  17  19
ENDBRANCH   1  17
TORSDOF 4
