REMARK  2 active torsions:
REMARK  status: ('A' for Active; 'I' for Inactive)
REMARK    1  A    between atoms: C1_1  and  C2_2 
REMARK    2  A    between atoms: C8_10  and  O1_12 
ROOT
ATOM      1  C2  <0> d           0.710  -2.685  -0.018  0.00  0.00    -0.057 A 
ATOM      2  C3  <0> d           1.698  -1.725  -0.023  0.00  0.00    -0.051 A 
ATOM      3  C4  <0> d           1.358  -0.375  -0.013  0.00  0.00     0.045 A 
ATOM      4  C5  <0> d           0.002  -0.004   0.002  0.00  0.00     0.025 A 
ATOM      5  C6  <0> d          -0.018   1.461   0.010  0.00  0.00    -0.053 A 
ATOM      6  C7  <0> d           1.260   1.870   0.000  0.00  0.00    -0.022 A 
ATOM      7  N1  <0> d           2.097   0.786  -0.014  0.00  0.00    -0.365 N 
ATOM      8  H1  <0> d           3.066   0.830  -0.023  0.00  0.00     0.165 HD
ATOM      9  C8  <0> d          -0.992  -0.990   0.007  0.00  0.00     0.078 A 
ATOM     10  C9  <0> d          -0.629  -2.323  -0.003  0.00  0.00    -0.044 A 
ATOM     11  H5  <0> d           2.737  -2.020  -0.035  0.00  0.00     0.087 H 
ATOM     12  H6  <0> d          -0.894   2.091   0.018  0.00  0.00     0.087 H 
ATOM     13  H7  <0> d           1.581   2.902   0.003  0.00  0.00     0.111 H 
ATOM     14  H8  <0> d          -1.393  -3.088   0.001  0.00  0.00     0.088 H 
ENDROOT
BRANCH   1  15
ATOM     15  C1  <0> d           1.088  -4.144  -0.029  0.00  0.00    -0.051 C 
ATOM     16  H2  <0> d           1.189  -4.500   0.996  0.00  0.00     0.033 H 
ATOM     17  H3  <0> d           0.313  -4.716  -0.539  0.00  0.00     0.033 H 
ATOM     18  H4  <0> d           2.036  -4.269  -0.553  0.00  0.00     0.033 H 
ENDBRANCH   1  15
BRANCH   9  19
ATOM     19  O1  <0> d          -2.304  -0.638   0.021  0.00  0.00    -0.360 OA
ATOM     20  H9  <0> d          -2.693  -0.532  -0.858  0.00  0.00     0.217 HD
ENDBRANCH   9  19
TORSDOF 2
