REMARK  1 active torsions:
REMARK  status: ('A' for Active; 'I' for Inactive)
REMARK    1  A    between atoms: C1_1  and  C2_2 
ROOT
ATOM      1  C2  <0> d           3.473   0.746  -0.027  0.00  0.00    -0.028 A 
ATOM      2  C3  <0> d           4.015   2.018  -0.027  0.00  0.00    -0.058 A 
ATOM      3  C4  <0> d           3.174   3.119  -0.012  0.00  0.00     0.005 A 
ATOM      4  N1  <0> d           1.864   2.982  -0.000  0.00  0.00    -0.241 NA
ATOM      5  C5  <0> d           1.293   1.788  -0.001  0.00  0.00     0.157 A 
ATOM      6  C6  <0> d           2.080   0.623  -0.015  0.00  0.00     0.110 A 
ATOM      7  N2  <0> d           1.230  -0.434  -0.012  0.00  0.00    -0.240 NA
ATOM      8  C7  <0> d           0.002  -0.004   0.002  0.00  0.00     0.066 A 
ATOM      9  N3  <0> d          -0.016   1.357   0.009  0.00  0.00    -0.334 N 
ATOM     10  H1  <0> d          -0.831   1.938   0.020  0.00  0.00     0.168 HD
ATOM     11  H5  <0> d           5.086   2.152  -0.037  0.00  0.00     0.086 H 
ATOM     12  H6  <0> d           3.601   4.111  -0.011  0.00  0.00     0.114 H 
ATOM     13  H7  <0> d          -0.875  -0.635   0.008  0.00  0.00     0.143 H 
ENDROOT
BRANCH   1  14
ATOM     14  C1  <0> d           4.358  -0.473  -0.042  0.00  0.00    -0.049 C 
ATOM     15  H2  <0> d           4.562  -0.761  -1.073  0.00  0.00     0.033 H 
ATOM     16  H3  <0> d           5.297  -0.247   0.465  0.00  0.00     0.033 H 
ATOM     17  H4  <0> d           3.856  -1.293   0.472  0.00  0.00     0.033 H 
ENDBRANCH   1  14
TORSDOF 1
