REMARK  3 active torsions:
REMARK  status: ('A' for Active; 'I' for Inactive)
REMARK    1  A    between atoms: C4_4  and  C8_11 
REMARK    2  A    between atoms: C5_6  and  C7_9 
REMARK    3  A    between atoms: C7_9  and  O1_10 
REMARK       I    between atoms: C8_11  and  N1_13 
ROOT
ATOM      1  C1  <0> d          -0.019   1.526   0.010  0.00  0.00    -0.065 C 
ATOM      2  C2  <0> d           1.417   2.055  -0.000  0.00  0.00    -0.064 C 
ATOM      3  C3  <0> d           2.157   1.548   1.239  0.00  0.00    -0.053 C 
ATOM      4  C4  <0> d           2.178   0.019   1.231  0.00  0.00     0.029 C 
ATOM      5  H1  <0> d           2.688  -0.333   0.334  0.00  0.00     0.055 H 
ATOM      6  C5  <0> d           0.742  -0.511   1.242  0.00  0.00    -0.022 C 
ATOM      7  H2  <0> d           0.232  -0.159   2.138  0.00  0.00     0.044 H 
ATOM      8  C6  <0> d           0.002  -0.004   0.002  0.00  0.00    -0.059 C 
ATOM      9  H3  <0> d          -0.529   1.877   0.907  0.00  0.00     0.033 H 
ATOM     10  H4  <0> d          -0.546   1.887  -0.873  0.00  0.00     0.033 H 
ATOM     11  H5  <0> d           1.927   1.704  -0.897  0.00  0.00     0.033 H 
ATOM     12  H6  <0> d           1.402   3.145   0.006  0.00  0.00     0.033 H 
ATOM     13  H7  <0> d           3.179   1.926   1.231  0.00  0.00     0.034 H 
ATOM     14  H8  <0> d           1.647   1.900   2.136  0.00  0.00     0.034 H 
ATOM     15  H9  <0> d          -1.020  -0.381   0.010  0.00  0.00     0.033 H 
ATOM     16  H10 <0> d           0.512  -0.356  -0.895  0.00  0.00     0.033 H 
ENDROOT
BRANCH   4  17
ATOM     17  C8  <0> d           2.906  -0.480   2.452  0.00  0.00     0.220 C 
ATOM     18  O2  <0> d           2.334  -1.190   3.252  0.00  0.00    -0.273 OA
ATOM     19  N1  <0> d           4.194  -0.139   2.654  0.00  0.00    -0.370 N 
ATOM     20  H14 <0> d           4.652   0.429   2.014  0.00  0.00     0.159 HD
ATOM     21  H15 <0> d           4.663  -0.460   3.440  0.00  0.00     0.159 HD
ENDBRANCH   4  17
BRANCH   6  22
ATOM     22  C7  <0> d           0.763  -2.041   1.233  0.00  0.00     0.021 C 
ATOM     23  H11 <0> d           1.193  -2.393   0.296  0.00  0.00     0.074 H 
ATOM     24  H12 <0> d           1.365  -2.401   2.067  0.00  0.00     0.074 H 
BRANCH  22  25
ATOM     25  O1  <0> d          -0.572  -2.536   1.361  0.00  0.00    -0.400 OA
ATOM     26  H13 <0> d          -0.634  -3.501   1.363  0.00  0.00     0.209 HD
ENDBRANCH  22  25
ENDBRANCH   6  22
TORSDOF 3
