REMARK  7 active torsions:
REMARK  status: ('A' for Active; 'I' for Inactive)
REMARK    1  A    between atoms: C1_1  and  C2_2 
REMARK    2  A    between atoms: C2_2  and  C3_3 
REMARK    3  A    between atoms: C3_3  and  O2_5 
REMARK    4  A    between atoms: O2_5  and  C4_6 
REMARK    5  A    between atoms: C4_6  and  C5_7 
REMARK    6  A    between atoms: C5_7  and  C6_8 
REMARK    7  A    between atoms: C5_7  and  C7_9 
ROOT
ATOM      1  C4  <0> d           1.423   1.615  -0.003  0.00  0.00     0.031 C 
ATOM      2  H6  <0> d           1.905   1.339  -0.940  0.00  0.00     0.075 H 
ATOM      3  H7  <0> d           1.410   2.701   0.093  0.00  0.00     0.075 H 
ENDROOT
BRANCH   1   4
ATOM      4  O2  <0> d           2.159   1.040   1.109  0.00  0.00    -0.321 OA
BRANCH   4   5
ATOM      5  C3  <0> d           3.444   1.405   1.242  0.00  0.00     0.258 C 
ATOM      6  O1  <0> d           3.937   2.180   0.457  0.00  0.00    -0.265 OA
BRANCH   5   7
ATOM      7  C2  <0> d           4.272   0.849   2.372  0.00  0.00     0.013 C 
ATOM      8  H4  <0> d           3.819   1.126   3.324  0.00  0.00     0.047 H 
ATOM      9  H5  <0> d           4.314  -0.237   2.291  0.00  0.00     0.047 H 
BRANCH   7  10
ATOM     10  C1  <0> d           5.689   1.422   2.296  0.00  0.00    -0.068 C 
ATOM     11  H1  <0> d           6.287   1.019   3.113  0.00  0.00     0.028 H 
ATOM     12  H2  <0> d           6.141   1.145   1.344  0.00  0.00     0.028 H 
ATOM     13  H3  <0> d           5.646   2.508   2.377  0.00  0.00     0.028 H 
ENDBRANCH   7  10
ENDBRANCH   5   7
ENDBRANCH   4   5
ENDBRANCH   1   4
BRANCH   1  14
ATOM     14  C5  <0> d          -0.013   1.086   0.008  0.00  0.00    -0.040 C 
ATOM     15  H8  <0> d           0.002  -0.004   0.002  0.00  0.00     0.042 H 
BRANCH  14  16
ATOM     16  C6  <0> d          -0.753   1.593  -1.232  0.00  0.00    -0.071 C 
ATOM     17  H9  <0> d          -0.242   1.241  -2.128  0.00  0.00     0.028 H 
ATOM     18  H10 <0> d          -1.775   1.215  -1.224  0.00  0.00     0.028 H 
ATOM     19  H11 <0> d          -0.767   2.683  -1.226  0.00  0.00     0.028 H 
ENDBRANCH  14  16
BRANCH  14  20
ATOM     20  C7  <0> d          -0.729   1.579   1.267  0.00  0.00    -0.071 C 
ATOM     21  H12 <0> d          -1.751   1.202   1.275  0.00  0.00     0.028 H 
ATOM     22  H13 <0> d          -0.202   1.218   2.150  0.00  0.00     0.028 H 
ATOM     23  H14 <0> d          -0.744   2.669   1.273  0.00  0.00     0.028 H 
ENDBRANCH  14  20
ENDBRANCH   1  14
TORSDOF 7
