REMARK  0 active torsions:
REMARK  status: ('A' for Active; 'I' for Inactive)
ROOT
ATOM      1  C1  <0> d          -2.978   3.825   0.049  0.00  0.00    -0.061 A 
ATOM      2  C2  <0> d          -1.645   4.120   0.038  0.00  0.00    -0.068 A 
ATOM      3  C3  <0> d          -0.704   3.086   0.025  0.00  0.00     0.011 A 
ATOM      4  C4  <0> d           0.755   3.044   0.011  0.00  0.00     0.034 A 
ATOM      5  N1  <0> d           1.117   1.793   0.001  0.00  0.00    -0.186 NA
ATOM      6  N2  <0> d          -0.011   0.966   0.007  0.00  0.00    -0.278 N 
ATOM      7  H1  <0> d           0.003  -0.034   0.006  0.00  0.00     0.189 HD
ATOM      8  C5  <0> d          -1.138   1.746   0.016  0.00  0.00     0.063 A 
ATOM      9  C6  <0> d          -2.502   1.468   0.032  0.00  0.00    -0.034 A 
ATOM     10  C7  <0> d          -3.410   2.504   0.046  0.00  0.00     0.036 A 
ATOM     11 Cl1  <0> d          -5.111   2.156   0.060  0.00  0.00    -0.084 Cl
ATOM     12  H2  <0> d          -3.703   4.625   0.060  0.00  0.00     0.086 H 
ATOM     13  H3  <0> d          -1.319   5.150   0.040  0.00  0.00     0.085 H 
ATOM     14  H4  <0> d           1.416   3.898   0.009  0.00  0.00     0.118 H 
ATOM     15  H5  <0> d          -2.847   0.445   0.030  0.00  0.00     0.089 H 
ENDROOT
TORSDOF 0
