REMARK  3 active torsions:
REMARK  status: ('A' for Active; 'I' for Inactive)
REMARK    1  A    between atoms: C1_1  and  C2_2 
REMARK    2  A    between atoms: C2_2  and  C3_4 
REMARK    3  A    between atoms: C5_7  and  O4_11 
ROOT
ATOM      1  C3  <0> d          -0.200   1.218   2.572  0.00  0.00     0.082 A 
ATOM      2  C4  <0> d           0.928   0.436   2.706  0.00  0.00     0.039 A 
ATOM      3  O2  <0> d           1.395   0.123   3.917  0.00  0.00    -0.299 OA
ATOM      4  C5  <0> d           0.805   0.530   5.048  0.00  0.00     0.186 A 
ATOM      5  C6  <0> d          -0.315   1.299   5.039  0.00  0.00     0.022 A 
ATOM      6  C7  <0> d          -0.875   1.683   3.801  0.00  0.00     0.192 A 
ATOM      7  O3  <0> d          -1.880   2.373   3.748  0.00  0.00    -0.287 OA
ATOM      8  H4  <0> d           1.440   0.078   1.825  0.00  0.00     0.125 H 
ATOM      9  H5  <0> d          -0.770   1.613   5.966  0.00  0.00     0.097 H 
ENDROOT
BRANCH   1  10
ATOM     10  C2  <0> d          -0.718   1.572   1.248  0.00  0.00     0.161 C 
ATOM     11  O1  <0> d          -1.715   2.256   1.150  0.00  0.00    -0.293 OA
BRANCH  10  12
ATOM     12  C1  <0> d          -0.013   1.086   0.008  0.00  0.00    -0.016 C 
ATOM     13  H1  <0> d           0.001   0.086   0.003  0.00  0.00     0.038 H 
ATOM     14  H2  <0> d           1.010   1.463   0.000  0.00  0.00     0.038 H 
ATOM     15  H3  <0> d          -0.540   1.447  -0.875  0.00  0.00     0.038 H 
ENDBRANCH  10  12
ENDBRANCH   1  10
BRANCH   4  16
ATOM     16  O4  <0> d           1.339   0.165   6.234  0.00  0.00    -0.341 OA
ATOM     17  H6  <0> d           0.994  -0.669   6.580  0.00  0.00     0.220 HD
ENDBRANCH   4  16
TORSDOF 3
