REMARK  7 active torsions:
REMARK  status: ('A' for Active; 'I' for Inactive)
REMARK    1  A    between atoms: C1_1  and  C2_2 
REMARK    2  A    between atoms: C2_2  and  C3_3 
REMARK    3  A    between atoms: C2_2  and  C4_4 
REMARK    4  A    between atoms: C4_4  and  O1_5 
REMARK    5  A    between atoms: O1_5  and  C5_6 
REMARK    6  A    between atoms: C5_6  and  C6_8 
REMARK    7  A    between atoms: C6_8  and  C7_9 
ROOT
ATOM      1  C4  <0> d           2.367   1.117  -0.015  0.00  0.00     0.031 C 
ATOM      2  H8  <0> d           2.409   0.484   0.872  0.00  0.00     0.075 H 
ATOM      3  H9  <0> d           2.392   0.493  -0.908  0.00  0.00     0.075 H 
ENDROOT
BRANCH   1   4
ATOM      4  C2  <0> d           3.568   2.065  -0.021  0.00  0.00    -0.040 C 
ATOM      5  H4  <0> d           3.479   2.757  -0.858  0.00  0.00     0.042 H 
BRANCH   4   6
ATOM      6  C1  <0> d           3.603   2.853   1.290  0.00  0.00    -0.071 C 
ATOM      7  H1  <0> d           4.458   3.528   1.286  0.00  0.00     0.028 H 
ATOM      8  H2  <0> d           2.684   3.430   1.392  0.00  0.00     0.028 H 
ATOM      9  H3  <0> d           3.691   2.160   2.128  0.00  0.00     0.028 H 
ENDBRANCH   4   6
BRANCH   4  10
ATOM     10  C3  <0> d           4.857   1.254  -0.163  0.00  0.00    -0.071 C 
ATOM     11  H5  <0> d           4.833   0.694  -1.097  0.00  0.00     0.028 H 
ATOM     12  H6  <0> d           5.713   1.930  -0.168  0.00  0.00     0.028 H 
ATOM     13  H7  <0> d           4.946   0.562   0.674  0.00  0.00     0.028 H 
ENDBRANCH   4  10
ENDBRANCH   1   4
BRANCH   1  14
ATOM     14  O1  <0> d           1.139   1.891   0.001  0.00  0.00    -0.321 OA
BRANCH  14  15
ATOM     15  C5  <0> d          -0.014   1.204   0.009  0.00  0.00     0.262 C 
ATOM     16  O2  <0> d           0.002  -0.004   0.002  0.00  0.00    -0.265 OA
BRANCH  15  17
ATOM     17  C6  <0> d          -1.329   1.940   0.019  0.00  0.00     0.030 C 
ATOM     18  H10 <0> d          -1.391   2.561   0.913  0.00  0.00     0.053 H 
ATOM     19  H11 <0> d          -1.400   2.570  -0.867  0.00  0.00     0.053 H 
BRANCH  17  20
ATOM     20  C7  <0> d          -2.462   0.945   0.019  0.00  0.00    -0.103 C 
ATOM     21  C8  <0> d          -3.379   0.996   0.953  0.00  0.00    -0.124 C 
ATOM     22  H13 <0> d          -3.324   1.752   1.723  0.00  0.00     0.066 H 
ATOM     23  H14 <0> d          -4.190   0.283   0.953  0.00  0.00     0.066 H 
ATOM     24  H12 <0> d          -2.517   0.190  -0.751  0.00  0.00     0.076 H 
ENDBRANCH  17  20
ENDBRANCH  15  17
ENDBRANCH  14  15
ENDBRANCH   1  14
TORSDOF 7
