REMARK  4 active torsions:
REMARK  status: ('A' for Active; 'I' for Inactive)
REMARK    1  A    between atoms: C1_1  and  C2_2 
REMARK    2  A    between atoms: C5_5  and  C8_8 
REMARK    3  A    between atoms: C8_8  and  O1_9 
REMARK    4  A    between atoms: O1_9  and  C9_10 
ROOT
ATOM      1  C2  <0> d          -2.012   2.463   3.523  0.00  0.00    -0.062 A 
ATOM      2  C3  <0> d          -2.366   1.254   2.955  0.00  0.00    -0.077 A 
ATOM      3  C4  <0> d          -1.719   0.808   1.818  0.00  0.00    -0.074 A 
ATOM      4  C5  <0> d          -0.718   1.572   1.248  0.00  0.00    -0.035 A 
ATOM      5  C6  <0> d          -0.360   2.779   1.819  0.00  0.00    -0.074 A 
ATOM      6  C7  <0> d          -1.010   3.227   2.953  0.00  0.00    -0.077 A 
ATOM      7  H4  <0> d          -3.149   0.657   3.400  0.00  0.00     0.084 H 
ATOM      8  H5  <0> d          -1.996  -0.137   1.374  0.00  0.00     0.084 H 
ATOM      9  H6  <0> d           0.425   3.373   1.376  0.00  0.00     0.084 H 
ATOM     10  H7  <0> d          -0.733   4.172   3.397  0.00  0.00     0.084 H 
ENDROOT
BRANCH   4  11
ATOM     11  C8  <0> d          -0.013   1.086   0.008  0.00  0.00     0.043 C 
ATOM     12  H8  <0> d           0.002  -0.004   0.002  0.00  0.00     0.081 H 
ATOM     13  H9  <0> d           1.010   1.463   0.000  0.00  0.00     0.081 H 
BRANCH  11  14
ATOM     14  O1  <0> d          -0.704   1.559  -1.150  0.00  0.00    -0.391 OA
BRANCH  14  15
ATOM     15  C9  <0> d          -0.114   1.152  -2.386  0.00  0.00     0.004 C 
ATOM     16  H10 <0> d          -0.697   1.552  -3.216  0.00  0.00     0.066 H 
ATOM     17  H11 <0> d           0.907   1.531  -2.443  0.00  0.00     0.066 H 
ATOM     18  H12 <0> d          -0.101   0.064  -2.442  0.00  0.00     0.066 H 
ENDBRANCH  14  15
ENDBRANCH  11  14
ENDBRANCH   4  11
BRANCH   1  19
ATOM     19  C1  <0> d          -2.717   2.949   4.763  0.00  0.00    -0.051 C 
ATOM     20  H1  <0> d          -2.190   2.587   5.646  0.00  0.00     0.033 H 
ATOM     21  H2  <0> d          -2.731   4.039   4.769  0.00  0.00     0.033 H 
ATOM     22  H3  <0> d          -3.740   2.572   4.770  0.00  0.00     0.033 H 
ENDBRANCH   1  19
TORSDOF 4
