REMARK  0 active torsions:
REMARK  status: ('A' for Active; 'I' for Inactive)
ROOT
ATOM      1  C1  <0> d           1.161   1.776   0.001  0.00  0.00    -0.079 A 
ATOM      2  C2  <0> d          -0.013   1.076   0.008  0.00  0.00    -0.055 A 
ATOM      3  C3  <0> d          -1.227   1.757   0.017  0.00  0.00     0.063 A 
ATOM      4  C4  <0> d          -1.231   3.165   0.031  0.00  0.00     0.033 A 
ATOM      5  C5  <0> d          -2.632   3.572   0.048  0.00  0.00     0.035 A 
ATOM      6  N1  <0> d          -3.360   2.491   0.049  0.00  0.00    -0.186 NA
ATOM      7  N2  <0> d          -2.538   1.359   0.034  0.00  0.00    -0.278 N 
ATOM      8  H1  <0> d          -2.857   0.411   0.036  0.00  0.00     0.189 HD
ATOM      9  C6  <0> d          -0.016   3.861   0.024  0.00  0.00     0.048 A 
ATOM     10  C7  <0> d           1.160   3.165   0.008  0.00  0.00    -0.061 A 
ATOM     11 Cl1  <0> d          -0.003   5.597   0.034  0.00  0.00    -0.083 Cl
ATOM     12  H2  <0> d           2.100   1.243  -0.012  0.00  0.00     0.083 H 
ATOM     13  H3  <0> d           0.002  -0.004   0.002  0.00  0.00     0.087 H 
ATOM     14  H4  <0> d          -3.000   4.587   0.057  0.00  0.00     0.118 H 
ATOM     15  H5  <0> d           2.098   3.700   0.002  0.00  0.00     0.086 H 
ENDROOT
TORSDOF 0
