REMARK  2 active torsions:
REMARK  status: ('A' for Active; 'I' for Inactive)
REMARK    1  A    between atoms: C1_1  and  C2_2 
REMARK    2  A    between atoms: C7_7  and  N1_8 
ROOT
ATOM      1  C2  <0> d          -2.425   1.346   0.033  0.00  0.00    -0.033 A 
ATOM      2  C3  <0> d          -2.394  -0.041   0.025  0.00  0.00    -0.073 A 
ATOM      3  C4  <0> d          -1.192  -0.715   0.010  0.00  0.00    -0.054 A 
ATOM      4  C5  <0> d           0.002  -0.004   0.002  0.00  0.00     0.064 A 
ATOM      5  C6  <0> d          -0.017   1.399   0.010  0.00  0.00     0.111 A 
ATOM      6  C7  <0> d          -1.248   2.072   0.030  0.00  0.00     0.063 A 
ATOM      7  N2  <0> d           1.276   1.814  -0.000  0.00  0.00    -0.239 NA
ATOM      8  C8  <0> d           2.066   0.781  -0.013  0.00  0.00     0.065 A 
ATOM      9  N3  <0> d           1.334  -0.367  -0.013  0.00  0.00    -0.349 N 
ATOM     10  H1  <0> d           1.694  -1.300  -0.021  0.00  0.00     0.167 HD
ATOM     11  H5  <0> d          -3.320  -0.597   0.032  0.00  0.00     0.084 H 
ATOM     12  H6  <0> d          -1.178  -1.795   0.004  0.00  0.00     0.087 H 
ATOM     13  H9  <0> d           3.145   0.827  -0.024  0.00  0.00     0.143 H 
ENDROOT
BRANCH   1  14
ATOM     14  C1  <0> d          -3.749   2.065   0.050  0.00  0.00    -0.049 C 
ATOM     15  H2  <0> d          -4.058   2.234   1.081  0.00  0.00     0.033 H 
ATOM     16  H3  <0> d          -3.648   3.023  -0.460  0.00  0.00     0.033 H 
ATOM     17  H4  <0> d          -4.498   1.460  -0.460  0.00  0.00     0.033 H 
ENDBRANCH   1  14
BRANCH   6  18
ATOM     18  N1  <0> d          -1.285   3.468   0.038  0.00  0.00    -0.397 N 
ATOM     19  H7  <0> d          -0.458   3.975   0.029  0.00  0.00     0.156 HD
ATOM     20  H8  <0> d          -2.137   3.931   0.052  0.00  0.00     0.156 HD
ENDBRANCH   6  18
TORSDOF 2
