REMARK  5 active torsions:
REMARK  status: ('A' for Active; 'I' for Inactive)
REMARK    1  A    between atoms: C1_1  and  C2_3 
REMARK    2  A    between atoms: C1_1  and  C4_9 
REMARK    3  A    between atoms: C1_1  and  O6_12 
REMARK    4  A    between atoms: C2_3  and  C3_5 
REMARK    5  A    between atoms: C2_3  and  O3_8 
ROOT
ATOM      1  C1  <0> d          -0.013   1.086   0.008  0.00  0.00     0.153 C 
ATOM      2  H1  <0> d           0.002  -0.004   0.002  0.00  0.00     0.105 H 
ENDROOT
BRANCH   1   3
ATOM      3  C2  <0> d           1.423   1.615  -0.003  0.00  0.00     0.153 C 
ATOM      4  H2  <0> d           1.408   2.705   0.003  0.00  0.00     0.105 H 
BRANCH   3   5
ATOM      5  C3  <0> d           2.128   1.129  -1.243  0.00  0.00     0.206 C 
ATOM      6  O1  <0> d           1.752   1.498  -2.342  0.00  0.00    -0.646 OA
ATOM      7  O2  <0> d           3.075   0.367  -1.146  0.00  0.00    -0.646 OA
ENDBRANCH   3   5
BRANCH   3   8
ATOM      8  O3  <0> d           2.114   1.142   1.155  0.00  0.00    -0.382 OA
ATOM      9  H3  <0> d           2.166   0.178   1.215  0.00  0.00     0.210 HD
ENDBRANCH   3   8
ENDBRANCH   1   3
BRANCH   1  10
ATOM     10  C4  <0> d          -0.718   1.572   1.248  0.00  0.00     0.206 C 
ATOM     11  O4  <0> d          -1.665   2.334   1.151  0.00  0.00    -0.646 OA
ATOM     12  O5  <0> d          -0.342   1.203   2.347  0.00  0.00    -0.646 OA
ENDBRANCH   1  10
BRANCH   1  13
ATOM     13  O6  <0> d          -0.704   1.559  -1.150  0.00  0.00    -0.382 OA
ATOM     14  H4  <0> d          -0.756   2.523  -1.210  0.00  0.00     0.210 HD
ENDBRANCH   1  13
TORSDOF 5
