REMARK  3 active torsions:
REMARK  status: ('A' for Active; 'I' for Inactive)
REMARK    1  A    between atoms: C1_1  and  C2_2 
REMARK    2  A    between atoms: C2_2  and  C3_4 
REMARK    3  A    between atoms: C2_2  and  O1_11 
ROOT
ATOM      1  C3  <0> d          -0.018   1.503   0.010  0.00  0.00    -0.030 A 
ATOM      2  C4  <0> d          -1.225   2.177   0.020  0.00  0.00    -0.073 A 
ATOM      3  C5  <0> d          -1.244   3.559   0.033  0.00  0.00    -0.061 A 
ATOM      4  C6  <0> d          -0.056   4.268   0.025  0.00  0.00     0.034 A 
ATOM      5  C7  <0> d           1.151   3.592   0.010  0.00  0.00    -0.061 A 
ATOM      6  C8  <0> d           1.169   2.210   0.003  0.00  0.00    -0.073 A 
ATOM      7 Cl1  <0> d          -0.079   6.003   0.035  0.00  0.00    -0.084 Cl
ATOM      8  H5  <0> d          -2.153   1.624   0.021  0.00  0.00     0.084 H 
ATOM      9  H6  <0> d          -2.187   4.086   0.045  0.00  0.00     0.086 H 
ATOM     10  H7  <0> d           2.079   4.144   0.004  0.00  0.00     0.086 H 
ATOM     11  H8  <0> d           2.112   1.682  -0.009  0.00  0.00     0.084 H 
ENDROOT
BRANCH   1  12
ATOM     12  C2  <0> d           0.002  -0.004   0.002  0.00  0.00     0.057 C 
ATOM     13  H1  <0> d           0.969  -0.352  -0.361  0.00  0.00     0.089 H 
BRANCH  12  14
ATOM     14  C1  <0> d          -0.228  -0.525   1.422  0.00  0.00    -0.049 C 
ATOM     15  H2  <0> d          -1.195  -0.177   1.785  0.00  0.00     0.031 H 
ATOM     16  H3  <0> d          -0.213  -1.615   1.416  0.00  0.00     0.031 H 
ATOM     17  H4  <0> d           0.561  -0.155   2.077  0.00  0.00     0.031 H 
ENDBRANCH  12  14
BRANCH  12  18
ATOM     18  O1  <0> d          -1.032  -0.490  -0.857  0.00  0.00    -0.391 OA
ATOM     19  H9  <0> d          -1.922  -0.218  -0.594  0.00  0.00     0.210 HD
ENDBRANCH  12  18
ENDBRANCH   1  12
TORSDOF 3
