REMARK  3 active torsions:
REMARK  status: ('A' for Active; 'I' for Inactive)
REMARK    1  A    between atoms: C1_1  and  C2_2 
REMARK    2  A    between atoms: C5_6  and  O2_12 
REMARK    3  A    between atoms: C6_8  and  O1_11 
ROOT
ATOM      1  C2  <0> d          -0.019   1.526   0.010  0.00  0.00    -0.055 C 
ATOM      2  H1  <0> d           1.004   1.903   0.003  0.00  0.00     0.039 H 
ATOM      3  C3  <0> d          -0.759   2.033  -1.229  0.00  0.00    -0.060 C 
ATOM      4  C4  <0> d          -0.779   3.562  -1.221  0.00  0.00    -0.038 C 
ATOM      5  C5  <0> d          -1.496   4.056   0.038  0.00  0.00     0.060 C 
ATOM      6  H2  <0> d          -2.518   3.679   0.046  0.00  0.00     0.086 H 
ATOM      7  C6  <0> d          -0.756   3.549   1.278  0.00  0.00     0.060 C 
ATOM      8  H3  <0> d           0.267   3.926   1.270  0.00  0.00     0.086 H 
ATOM      9  C7  <0> d          -0.735   2.019   1.269  0.00  0.00    -0.036 C 
ATOM     10  H7  <0> d          -0.248   1.681  -2.126  0.00  0.00     0.033 H 
ATOM     11  H8  <0> d          -1.781   1.655  -1.221  0.00  0.00     0.033 H 
ATOM     12  H9  <0> d          -1.307   3.924  -2.104  0.00  0.00     0.036 H 
ATOM     13  H10 <0> d           0.243   3.940  -1.228  0.00  0.00     0.036 H 
ATOM     14  H11 <0> d          -1.757   1.642   1.277  0.00  0.00     0.037 H 
ATOM     15  H12 <0> d          -0.208   1.658   2.152  0.00  0.00     0.037 H 
ENDROOT
BRANCH   1  16
ATOM     16  C1  <0> d           0.002  -0.004   0.002  0.00  0.00    -0.073 C 
ATOM     17  H4  <0> d          -1.020  -0.381   0.010  0.00  0.00     0.028 H 
ATOM     18  H5  <0> d           0.512  -0.356  -0.895  0.00  0.00     0.028 H 
ATOM     19  H6  <0> d           0.529  -0.365   0.885  0.00  0.00     0.028 H 
ENDBRANCH   1  16
BRANCH   7  20
ATOM     20  O1  <0> d          -1.424   4.010   2.453  0.00  0.00    -0.393 OA
ATOM     21  H13 <0> d          -1.475   4.973   2.525  0.00  0.00     0.210 HD
ENDBRANCH   7  20
BRANCH   5  22
ATOM     22  O2  <0> d          -1.515   5.485   0.046  0.00  0.00    -0.393 OA
ATOM     23  H14 <0> d          -1.969   5.876  -0.713  0.00  0.00     0.210 HD
ENDBRANCH   5  22
TORSDOF 3
