REMARK  0 active torsions:
REMARK  status: ('A' for Active; 'I' for Inactive)
ROOT
ATOM      1  C1  <0> d          -0.017   1.385   0.010  0.00  0.00    -0.045 A 
ATOM      2  C2  <0> d           1.165   2.090   0.002  0.00  0.00    -0.064 A 
ATOM      3  C3  <0> d           2.385   1.404  -0.013  0.00  0.00     0.045 A 
ATOM      4  C4  <0> d           2.408   0.001  -0.021  0.00  0.00     0.086 A 
ATOM      5  C5  <0> d           1.201  -0.692  -0.014  0.00  0.00    -0.013 A 
ATOM      6  C6  <0> d           0.002  -0.004   0.002  0.00  0.00     0.119 A 
ATOM      7  F1  <0> d          -1.162  -0.689   0.010  0.00  0.00    -0.206 F 
ATOM      8  O1  <0> d           3.678  -0.466  -0.035  0.00  0.00    -0.343 OA
ATOM      9  C7  <0> d           4.610   0.617  -0.038  0.00  0.00     0.085 A 
ATOM     10  C8  <0> d           3.776   1.880  -0.024  0.00  0.00     0.186 A 
ATOM     11  O2  <0> d           4.168   3.028  -0.021  0.00  0.00    -0.290 OA
ATOM     12  H1  <0> d          -0.959   1.912   0.026  0.00  0.00     0.088 H 
ATOM     13  H2  <0> d           1.151   3.170   0.008  0.00  0.00     0.085 H 
ATOM     14  H3  <0> d           1.201  -1.772  -0.020  0.00  0.00     0.092 H 
ATOM     15  H4  <0> d           5.241   0.572   0.850  0.00  0.00     0.087 H 
ATOM     16  H5  <0> d           5.224   0.582  -0.938  0.00  0.00     0.087 H 
ENDROOT
TORSDOF 0
