REMARK  2 active torsions:
REMARK  status: ('A' for Active; 'I' for Inactive)
REMARK    1  A    between atoms: C1_1  and  O1_2 
REMARK    2  A    between atoms: O1_2  and  C2_3 
ROOT
ATOM      1  C2  <0> d           0.606  -0.607  -1.056  0.00  0.00     0.087 A 
ATOM      2  C3  <0> d           0.658  -1.992  -1.135  0.00  0.00    -0.021 A 
ATOM      3  C4  <0> d           1.286  -2.566  -2.235  0.00  0.00     0.063 A 
ATOM      4  C5  <0> d           1.841  -1.726  -3.220  0.00  0.00     0.084 A 
ATOM      5  C6  <0> d           2.418  -2.619  -4.228  0.00  0.00    -0.038 A 
ATOM      6  C7  <0> d           2.191  -3.877  -3.817  0.00  0.00    -0.020 A 
ATOM      7  N1  <0> d           1.516  -3.865  -2.627  0.00  0.00    -0.364 N 
ATOM      8  H1  <0> d           1.240  -4.654  -2.134  0.00  0.00     0.165 HD
ATOM      9  N2  <0> d           1.765  -0.404  -3.100  0.00  0.00    -0.256 NA
ATOM     10  C8  <0> d           1.171   0.159  -2.071  0.00  0.00     0.035 A 
ATOM     11  H5  <0> d           0.223  -2.607  -0.361  0.00  0.00     0.091 H 
ATOM     12  H6  <0> d           2.929  -2.322  -5.131  0.00  0.00     0.089 H 
ATOM     13  H7  <0> d           2.497  -4.767  -4.347  0.00  0.00     0.111 H 
ATOM     14  H8  <0> d           1.125   1.236  -2.009  0.00  0.00     0.119 H 
ENDROOT
BRANCH   1  15
ATOM     15  O1  <0> d           0.002  -0.004   0.002  0.00  0.00    -0.354 OA
BRANCH  15  16
ATOM     16  C1  <0> d          -0.017   1.425   0.010  0.00  0.00     0.010 C 
ATOM     17  H2  <0> d           1.005   1.802   0.002  0.00  0.00     0.066 H 
ATOM     18  H3  <0> d          -0.544   1.786  -0.873  0.00  0.00     0.066 H 
ATOM     19  H4  <0> d          -0.527   1.776   0.907  0.00  0.00     0.066 H 
ENDBRANCH  15  16
ENDBRANCH   1  15
TORSDOF 2
