REMARK  5 active torsions:
REMARK  status: ('A' for Active; 'I' for Inactive)
REMARK    1  A    between atoms: C1_1  and  C2_2 
REMARK    2  A    between atoms: C2_2  and  C3_3 
REMARK    3  A    between atoms: C3_3  and  C4_5 
REMARK    4  A    between atoms: C3_3  and  O2_8 
REMARK    5  A    between atoms: C4_5  and  C5_6 
ROOT
ATOM      1  C3  <0> d          -0.750   3.109   1.275  0.00  0.00     0.044 C 
ATOM      2  H1  <0> d           0.268   3.487   1.178  0.00  0.00     0.083 H 
ENDROOT
BRANCH   1   3
ATOM      3  C2  <0> d          -0.729   1.579   1.267  0.00  0.00    -0.044 C 
ATOM      4  H5  <0> d          -1.751   1.202   1.275  0.00  0.00     0.036 H 
ATOM      5  H6  <0> d          -0.202   1.218   2.150  0.00  0.00     0.036 H 
BRANCH   3   6
ATOM      6  C1  <0> d          -0.013   1.086   0.008  0.00  0.00    -0.074 C 
ATOM      7  H2  <0> d           0.002  -0.004   0.002  0.00  0.00     0.027 H 
ATOM      8  H3  <0> d           1.010   1.463   0.000  0.00  0.00     0.027 H 
ATOM      9  H4  <0> d          -0.540   1.447  -0.875  0.00  0.00     0.027 H 
ENDBRANCH   3   6
ENDBRANCH   1   3
BRANCH   1  10
ATOM     10  C4  <0> d          -1.354   3.604   2.591  0.00  0.00     0.039 C 
ATOM     11  H7  <0> d          -2.399   3.301   2.647  0.00  0.00     0.052 H 
ATOM     12  H8  <0> d          -0.805   3.172   3.428  0.00  0.00     0.052 H 
BRANCH  10  13
ATOM     13  C5  <0> d          -1.262   5.107   2.652  0.00  0.00     0.175 C 
ATOM     14  O1  <0> d          -0.765   5.719   1.737  0.00  0.00    -0.648 OA
ATOM     15  O3  <0> d          -1.733   5.765   3.723  0.00  0.00    -0.648 OA
ENDBRANCH  10  13
ENDBRANCH   1  10
BRANCH   1  16
ATOM     16  O2  <0> d          -1.539   3.581   0.182  0.00  0.00    -0.395 OA
ATOM     17  H9  <0> d          -2.459   3.283   0.203  0.00  0.00     0.210 HD
ENDBRANCH   1  16
TORSDOF 5
