REMARK  2 active torsions:
REMARK  status: ('A' for Active; 'I' for Inactive)
REMARK    1  A    between atoms: C1_1  and  C2_2 
REMARK    2  A    between atoms: C4_4  and  C6_8 
ROOT
ATOM      1  C6  <0> d           0.040  -3.353  -1.532  0.00  0.00     0.040 C 
ATOM      2  C7  <0> d           1.432  -3.734  -1.824  0.00  0.00     0.063 C 
ATOM      3  N2  <0> d           2.506  -4.027  -2.049  0.00  0.00    -0.197 NA
ATOM      4  H7  <0> d          -0.460  -4.173  -1.017  0.00  0.00     0.062 H 
ATOM      5  H8  <0> d          -0.481  -3.138  -2.465  0.00  0.00     0.062 H 
ENDROOT
BRANCH   1   6
ATOM      6  C4  <0> d           0.028  -2.127  -0.656  0.00  0.00    -0.028 A 
ATOM      7  C3  <0> d           0.008  -0.789  -1.095  0.00  0.00    -0.053 A 
ATOM      8  C2  <0> d           0.002  -0.004   0.002  0.00  0.00     0.005 A 
ATOM      9  H5  <0> d          -0.002  -0.453  -2.121  0.00  0.00     0.087 H 
ATOM     10  N1  <0> d           0.024  -0.809   1.102  0.00  0.00    -0.369 N 
ATOM     11  C5  <0> d           0.034  -2.110   0.693  0.00  0.00    -0.016 A 
ATOM     12  H1  <0> d           0.029  -0.507   2.024  0.00  0.00     0.165 HD
ATOM     13  H6  <0> d           0.048  -2.976   1.337  0.00  0.00     0.112 H 
BRANCH   8  14
ATOM     14  C1  <0> d          -0.018   1.503   0.010  0.00  0.00    -0.037 C 
ATOM     15  H2  <0> d           1.004   1.880   0.003  0.00  0.00     0.035 H 
ATOM     16  H3  <0> d          -0.545   1.864  -0.873  0.00  0.00     0.035 H 
ATOM     17  H4  <0> d          -0.529   1.854   0.907  0.00  0.00     0.035 H 
ENDBRANCH   8  14
ENDBRANCH   1   6
TORSDOF 2
