REMARK  0 active torsions:
REMARK  status: ('A' for Active; 'I' for Inactive)
ROOT
ATOM      1  C1  <0> d          -0.017   1.392   0.010  0.00  0.00    -0.062 A 
ATOM      2  C2  <0> d           1.164   2.101   0.002  0.00  0.00    -0.066 A 
ATOM      3  C3  <0> d           2.386   1.423  -0.013  0.00  0.00     0.040 A 
ATOM      4  C4  <0> d           2.400   0.025  -0.021  0.00  0.00    -0.023 A 
ATOM      5  C5  <0> d           1.224  -0.684  -0.013  0.00  0.00    -0.054 A 
ATOM      6  C6  <0> d           0.002  -0.004   0.002  0.00  0.00     0.045 A 
ATOM      7  C7  <0> d          -1.227  -0.738   0.009  0.00  0.00     0.099 C 
ATOM      8  N1  <0> d          -2.203  -1.321   0.015  0.00  0.00    -0.191 NA
ATOM      9  C8  <0> d           3.851  -0.387  -0.036  0.00  0.00     0.020 A 
ATOM     10  N2  <0> d           4.631   0.856  -0.036  0.00  0.00    -0.353 N 
ATOM     11  C9  <0> d           3.783   1.899  -0.023  0.00  0.00     0.252 A 
ATOM     12  O1  <0> d           4.119   3.067  -0.019  0.00  0.00    -0.268 OA
ATOM     13  H1  <0> d          -0.960   1.918   0.026  0.00  0.00     0.085 H 
ATOM     14  H2  <0> d           1.146   3.180   0.008  0.00  0.00     0.085 H 
ATOM     15  H3  <0> d           1.242  -1.764  -0.019  0.00  0.00     0.086 H 
ATOM     16  H4  <0> d           4.083  -0.974   0.853  0.00  0.00     0.071 H 
ATOM     17  H5  <0> d           4.067  -0.965  -0.934  0.00  0.00     0.071 H 
ATOM     18  H6  <0> d           5.599   0.915  -0.044  0.00  0.00     0.163 HD
ENDROOT
TORSDOF 0
