REMARK  1 active torsions:
REMARK  status: ('A' for Active; 'I' for Inactive)
REMARK    1  A    between atoms: C1_1  and  N1_2 
ROOT
ATOM      1  N1  <0> d          -1.852   5.373   0.047  0.00  0.00    -0.348 N 
ATOM      2  C2  <0> d          -0.387   5.309   0.033  0.00  0.00     0.022 A 
ATOM      3  C3  <0> d          -0.029   3.843   0.022  0.00  0.00    -0.025 A 
ATOM      4  C4  <0> d           1.168   3.165   0.007  0.00  0.00    -0.074 A 
ATOM      5  C5  <0> d           1.178   1.781   0.000  0.00  0.00    -0.082 A 
ATOM      6  C6  <0> d          -0.013   1.076   0.008  0.00  0.00    -0.082 A 
ATOM      7  C7  <0> d          -1.218   1.746   0.017  0.00  0.00    -0.067 A 
ATOM      8  C8  <0> d          -1.237   3.142   0.030  0.00  0.00     0.040 A 
ATOM      9  C9  <0> d          -2.341   4.121   0.045  0.00  0.00     0.254 A 
ATOM     10  O1  <0> d          -3.522   3.836   0.055  0.00  0.00    -0.267 OA
ATOM     11  H4  <0> d           0.018   5.786   0.925  0.00  0.00     0.071 H 
ATOM     12  H5  <0> d           0.001   5.795  -0.862  0.00  0.00     0.071 H 
ATOM     13  H6  <0> d           2.099   3.713   0.001  0.00  0.00     0.084 H 
ATOM     14  H7  <0> d           2.119   1.249  -0.011  0.00  0.00     0.083 H 
ATOM     15  H8  <0> d           0.002  -0.004   0.002  0.00  0.00     0.083 H 
ATOM     16  H9  <0> d          -2.145   1.192   0.019  0.00  0.00     0.085 H 
ENDROOT
BRANCH   1  17
ATOM     17  C1  <0> d          -2.652   6.601   0.060  0.00  0.00    -0.015 C 
ATOM     18  H1  <0> d          -3.711   6.344   0.069  0.00  0.00     0.056 H 
ATOM     19  H2  <0> d          -2.412   7.182   0.951  0.00  0.00     0.056 H 
ATOM     20  H3  <0> d          -2.428   7.190  -0.829  0.00  0.00     0.056 H 
ENDBRANCH   1  17
TORSDOF 1
