REMARK  1 active torsions:
REMARK  status: ('A' for Active; 'I' for Inactive)
REMARK    1  A    between atoms: C1_1  and  C2_2 
ROOT
ATOM      1  C2  <0> d           0.002  -0.004   0.002  0.00  0.00     0.006 A 
ATOM      2  C3  <0> d           0.008  -0.785  -1.103  0.00  0.00    -0.059 A 
ATOM      3  C4  <0> d           0.029  -2.121  -0.685  0.00  0.00    -0.045 A 
ATOM      4  C5  <0> d           0.034  -2.114   0.694  0.00  0.00     0.114 A 
ATOM      5  N1  <0> d           0.023  -0.800   1.102  0.00  0.00    -0.351 N 
ATOM      6  H1  <0> d           0.028  -0.493   2.022  0.00  0.00     0.166 HD
ATOM      7  C6  <0> d           0.053  -3.264   1.546  0.00  0.00     0.117 C 
ATOM      8  N2  <0> d           0.068  -4.177   2.222  0.00  0.00    -0.190 NA
ATOM      9  H5  <0> d          -0.002  -0.440  -2.126  0.00  0.00     0.086 H 
ATOM     10  H6  <0> d           0.038  -2.993  -1.322  0.00  0.00     0.088 H 
ENDROOT
BRANCH   1  11
ATOM     11  C1  <0> d          -0.018   1.503   0.010  0.00  0.00    -0.037 C 
ATOM     12  H2  <0> d           1.004   1.880   0.003  0.00  0.00     0.035 H 
ATOM     13  H3  <0> d          -0.545   1.864  -0.873  0.00  0.00     0.035 H 
ATOM     14  H4  <0> d          -0.529   1.854   0.907  0.00  0.00     0.035 H 
ENDBRANCH   1  11
TORSDOF 1
