REMARK  3 active torsions:
REMARK  status: ('A' for Active; 'I' for Inactive)
REMARK    1  A    between atoms: C1_1  and  O1_2 
REMARK    2  A    between atoms: O1_2  and  C2_3 
REMARK    3  A    between atoms: C2_3  and  C3_5 
ROOT
ATOM      1  C3  <0> d           0.657  -2.104  -1.120  0.00  0.00     0.119 C 
ATOM      2  H1  <0> d          -0.285  -2.544  -0.795  0.00  0.00     0.092 H 
ATOM      3  C4  <0> d           1.839  -2.652  -0.285  0.00  0.00     0.058 C 
ATOM      4  O3  <0> d           2.881  -2.760  -1.274  0.00  0.00    -0.301 OA
ATOM      5  C5  <0> d           2.300  -2.924  -2.474  0.00  0.00     0.361 C 
ATOM      6  O4  <0> d           2.878  -3.366  -3.447  0.00  0.00    -0.238 OA
ATOM      7  N1  <0> d           1.002  -2.547  -2.485  0.00  0.00    -0.321 N 
ATOM      8  H5  <0> d           2.119  -1.950   0.501  0.00  0.00     0.079 H 
ATOM      9  H6  <0> d           1.599  -3.628   0.135  0.00  0.00     0.079 H 
ATOM     10  H7  <0> d           0.404  -2.564  -3.249  0.00  0.00     0.165 HD
ENDROOT
BRANCH   1  11
ATOM     11  C2  <0> d           0.598  -0.600  -1.043  0.00  0.00     0.283 C 
ATOM     12  O2  <0> d           1.088   0.070  -1.921  0.00  0.00    -0.263 OA
BRANCH  11  13
ATOM     13  O1  <0> d           0.002  -0.004   0.002  0.00  0.00    -0.325 OA
BRANCH  13  14
ATOM     14  C1  <0> d          -0.017   1.425   0.010  0.00  0.00     0.013 C 
ATOM     15  H2  <0> d           1.005   1.802   0.002  0.00  0.00     0.067 H 
ATOM     16  H3  <0> d          -0.544   1.786  -0.873  0.00  0.00     0.067 H 
ATOM     17  H4  <0> d          -0.527   1.776   0.907  0.00  0.00     0.067 H 
ENDBRANCH  13  14
ENDBRANCH  11  13
ENDBRANCH   1  11
TORSDOF 3
