REMARK  8 active torsions:
REMARK  status: ('A' for Active; 'I' for Inactive)
REMARK    1  A    between atoms: C1_1  and  C2_2 
REMARK    2  A    between atoms: C2_2  and  C3_3 
REMARK    3  A    between atoms: C3_3  and  C4_5 
REMARK    4  A    between atoms: C3_3  and  N1_6 
REMARK       I    between atoms: N1_6  and  C5_7 
REMARK    5  A    between atoms: C5_7  and  C6_9 
REMARK    6  A    between atoms: C6_9  and  C7_10 
REMARK    7  A    between atoms: C7_10  and  C8_11 
REMARK    8  A    between atoms: C7_10  and  C9_12 
ROOT
ATOM      1  N1  <0> d           2.148  -0.104   1.172  0.00  0.00    -0.357 N 
ATOM      2  C5  <0> d           2.869   0.026   2.303  0.00  0.00     0.218 C 
ATOM      3  O1  <0> d           2.354  -0.193   3.379  0.00  0.00    -0.274 OA
ATOM      4  H10 <0> d           2.559   0.072   0.311  0.00  0.00     0.162 HD
ENDROOT
BRANCH   1   5
ATOM      5  C3  <0> d           0.742  -0.511   1.242  0.00  0.00     0.008 C 
ATOM      6  H1  <0> d           0.285  -0.087   2.136  0.00  0.00     0.071 H 
BRANCH   5   7
ATOM      7  C2  <0> d           0.002  -0.004   0.002  0.00  0.00    -0.050 C 
ATOM      8  H5  <0> d          -1.020  -0.381   0.010  0.00  0.00     0.035 H 
ATOM      9  H6  <0> d           0.512  -0.356  -0.895  0.00  0.00     0.035 H 
BRANCH   7  10
ATOM     10  C1  <0> d          -0.019   1.526   0.010  0.00  0.00    -0.075 C 
ATOM     11  H2  <0> d           1.004   1.903   0.003  0.00  0.00     0.027 H 
ATOM     12  H3  <0> d          -0.546   1.887  -0.873  0.00  0.00     0.027 H 
ATOM     13  H4  <0> d          -0.529   1.877   0.907  0.00  0.00     0.027 H 
ENDBRANCH   7  10
ENDBRANCH   5   7
BRANCH   5  14
ATOM     14  C4  <0> d           0.655  -2.037   1.299  0.00  0.00    -0.057 C 
ATOM     15  H7  <0> d          -0.390  -2.340   1.351  0.00  0.00     0.030 H 
ATOM     16  H8  <0> d           1.112  -2.461   0.404  0.00  0.00     0.030 H 
ATOM     17  H9  <0> d           1.183  -2.398   2.182  0.00  0.00     0.030 H 
ENDBRANCH   5  14
ENDBRANCH   1   5
BRANCH   2  18
ATOM     18  C6  <0> d           4.314   0.445   2.231  0.00  0.00     0.012 C 
ATOM     19  H11 <0> d           4.875  -0.283   1.644  0.00  0.00     0.047 H 
ATOM     20  H12 <0> d           4.386   1.425   1.759  0.00  0.00     0.047 H 
BRANCH  18  21
ATOM     21  C7  <0> d           4.896   0.517   3.644  0.00  0.00    -0.053 C 
ATOM     22  H13 <0> d           4.282   1.177   4.257  0.00  0.00     0.039 H 
BRANCH  21  23
ATOM     23  C8  <0> d           4.910  -0.883   4.261  0.00  0.00    -0.073 C 
ATOM     24  H14 <0> d           3.892  -1.271   4.306  0.00  0.00     0.028 H 
ATOM     25  H15 <0> d           5.524  -1.544   3.649  0.00  0.00     0.028 H 
ATOM     26  H16 <0> d           5.324  -0.832   5.269  0.00  0.00     0.028 H 
ENDBRANCH  21  23
BRANCH  21  27
ATOM     27  C9  <0> d           6.324   1.061   3.582  0.00  0.00    -0.073 C 
ATOM     28  H17 <0> d           6.314   2.058   3.142  0.00  0.00     0.028 H 
ATOM     29  H18 <0> d           6.738   1.112   4.589  0.00  0.00     0.028 H 
ATOM     30  H19 <0> d           6.938   0.400   2.969  0.00  0.00     0.028 H 
ENDBRANCH  21  27
ENDBRANCH  18  21
ENDBRANCH   2  18
TORSDOF 8
