REMARK  2 active torsions:
REMARK  status: ('A' for Active; 'I' for Inactive)
REMARK    1  A    between atoms: C1_1  and  O1_2 
REMARK    2  A    between atoms: O1_2  and  C2_3 
ROOT
ATOM      1  C2  <0> d           1.077   1.866   0.002  0.00  0.00     0.075 A 
ATOM      2  C3  <0> d          -0.013   1.076   0.008  0.00  0.00     0.020 A 
ATOM      3  C4  <0> d          -1.176   1.872   0.017  0.00  0.00     0.285 A 
ATOM      4  O2  <0> d          -2.312   1.435   0.020  0.00  0.00    -0.260 OA
ATOM      5  O3  <0> d          -0.862   3.181   0.027  0.00  0.00    -0.311 OA
ATOM      6  C5  <0> d           0.567   3.290   0.014  0.00  0.00     0.073 A 
ATOM      7  H4  <0> d           0.002  -0.004   0.002  0.00  0.00     0.096 H 
ATOM      8  H5  <0> d           0.914   3.807   0.908  0.00  0.00     0.085 H 
ATOM      9  H6  <0> d           0.897   3.817  -0.881  0.00  0.00     0.085 H 
ENDROOT
BRANCH   1  10
ATOM     10  O1  <0> d           2.365   1.468  -0.013  0.00  0.00    -0.358 OA
BRANCH  10  11
ATOM     11  C1  <0> d           2.613   0.037  -0.023  0.00  0.00     0.010 C 
ATOM     12  H1  <0> d           2.178  -0.413   0.869  0.00  0.00     0.066 H 
ATOM     13  H2  <0> d           2.160  -0.404  -0.911  0.00  0.00     0.066 H 
ATOM     14  H3  <0> d           3.688  -0.145  -0.035  0.00  0.00     0.066 H 
ENDBRANCH  10  11
ENDBRANCH   1  10
TORSDOF 2
