REMARK  2 active torsions:
REMARK  status: ('A' for Active; 'I' for Inactive)
REMARK    1  A    between atoms: C1_1  and  C2_2 
REMARK    2  A    between atoms: C3_3  and  N4_10 
ROOT
ATOM      1  C2  <0> d           0.002  -0.004   0.002  0.00  0.00     0.053 A 
ATOM      2  C3  <0> d           1.307  -0.385  -0.013  0.00  0.00     0.091 A 
ATOM      3  C4  <0> d           2.053   0.822  -0.013  0.00  0.00     0.184 A 
ATOM      4  N1  <0> d           1.183   1.815   0.001  0.00  0.00    -0.161 NA
ATOM      5  N2  <0> d          -0.016   1.355   0.009  0.00  0.00    -0.279 N 
ATOM      6  H1  <0> d          -0.844   1.916   0.020  0.00  0.00     0.189 HD
ATOM      7  C5  <0> d           3.479   0.941  -0.026  0.00  0.00     0.124 C 
ATOM      8  N3  <0> d           4.612   1.036  -0.037  0.00  0.00    -0.190 NA
ENDROOT
BRANCH   2   9
ATOM      9  N4  <0> d           1.810  -1.695  -0.025  0.00  0.00    -0.395 N 
ATOM     10  H5  <0> d           1.200  -2.449  -0.023  0.00  0.00     0.156 HD
ATOM     11  H6  <0> d           2.768  -1.847  -0.035  0.00  0.00     0.156 HD
ENDBRANCH   2   9
BRANCH   1  12
ATOM     12  C1  <0> d          -1.198  -0.916   0.009  0.00  0.00    -0.034 C 
ATOM     13  H2  <0> d          -1.497  -1.131  -1.017  0.00  0.00     0.035 H 
ATOM     14  H3  <0> d          -0.943  -1.847   0.516  0.00  0.00     0.035 H 
ATOM     15  H4  <0> d          -2.020  -0.430   0.533  0.00  0.00     0.035 H 
ENDBRANCH   1  12
TORSDOF 2
