REMARK  3 active torsions:
REMARK  status: ('A' for Active; 'I' for Inactive)
REMARK    1  A    between atoms: C1_1  and  C2_2 
REMARK    2  A    between atoms: C4_6  and  C7_10 
REMARK    3  A    between atoms: C5_7  and  C6_9 
ROOT
ATOM      1  C2  <0> d          -0.013   1.086   0.008  0.00  0.00     0.062 C 
ATOM      2  H1  <0> d           0.002  -0.004   0.002  0.00  0.00     0.086 H 
ATOM      3  C3  <0> d          -0.770   1.602  -1.224  0.00  0.00     0.050 C 
ATOM      4  O1  <0> d          -2.121   1.132  -1.141  0.00  0.00    -0.351 OA
ATOM      5  C4  <0> d          -2.732   1.244   0.068  0.00  0.00     0.071 C 
ATOM      6  C5  <0> d          -2.053   1.442   1.175  0.00  0.00     0.071 C 
ATOM      7  O2  <0> d          -0.697   1.555   1.176  0.00  0.00    -0.346 OA
ATOM      8  H5  <0> d          -0.759   2.692  -1.234  0.00  0.00     0.079 H 
ATOM      9  H6  <0> d          -0.302   1.220  -2.132  0.00  0.00     0.079 H 
ENDROOT
BRANCH   1  10
ATOM     10  C1  <0> d           1.420   1.623  -0.003  0.00  0.00    -0.050 C 
ATOM     11  H2  <0> d           1.400   2.712   0.003  0.00  0.00     0.031 H 
ATOM     12  H3  <0> d           1.949   1.264   0.880  0.00  0.00     0.031 H 
ATOM     13  H4  <0> d           1.932   1.274  -0.900  0.00  0.00     0.031 H 
ENDBRANCH   1  10
BRANCH   6  14
ATOM     14  C6  <0> d          -2.796   1.547   2.481  0.00  0.00    -0.029 C 
ATOM     15  H7  <0> d          -2.891   0.556   2.926  0.00  0.00     0.036 H 
ATOM     16  H8  <0> d          -2.247   2.200   3.160  0.00  0.00     0.036 H 
ATOM     17  H9  <0> d          -3.788   1.961   2.302  0.00  0.00     0.036 H 
ENDBRANCH   6  14
BRANCH   5  18
ATOM     18  C7  <0> d          -4.234   1.138   0.141  0.00  0.00    -0.029 C 
ATOM     19  H10 <0> d          -4.636   0.976  -0.860  0.00  0.00     0.036 H 
ATOM     20  H11 <0> d          -4.508   0.301   0.783  0.00  0.00     0.036 H 
ATOM     21  H12 <0> d          -4.644   2.061   0.551  0.00  0.00     0.036 H 
ENDBRANCH   5  18
TORSDOF 3
