REMARK  1 active torsions:
REMARK  status: ('A' for Active; 'I' for Inactive)
REMARK    1  A    between atoms: C1_1  and  C2_2 
ROOT
ATOM      1  C2  <0> d           2.166   4.153   0.004  0.00  0.00    -0.012 A 
ATOM      2  C3  <0> d           1.148   3.169   0.008  0.00  0.00    -0.001 A 
ATOM      3  C4  <0> d           1.163   1.768   0.000  0.00  0.00    -0.070 A 
ATOM      4  C5  <0> d          -0.013   1.076   0.008  0.00  0.00    -0.082 A 
ATOM      5  C6  <0> d          -1.228   1.748   0.017  0.00  0.00    -0.081 A 
ATOM      6  C7  <0> d          -1.270   3.124   0.031  0.00  0.00    -0.056 A 
ATOM      7  C8  <0> d          -0.084   3.852   0.024  0.00  0.00     0.044 A 
ATOM      8  N1  <0> d           0.194   5.200   0.028  0.00  0.00    -0.346 N 
ATOM      9  H1  <0> d          -0.464   5.912   0.038  0.00  0.00     0.167 HD
ATOM     10  C9  <0> d           1.564   5.372   0.016  0.00  0.00     0.121 A 
ATOM     11  C10 <0> d           2.243   6.633   0.016  0.00  0.00     0.118 C 
ATOM     12  N2  <0> d           2.781   7.633   0.016  0.00  0.00    -0.190 NA
ATOM     13  H5  <0> d           2.104   1.237  -0.011  0.00  0.00     0.084 H 
ATOM     14  H6  <0> d           0.002  -0.004   0.002  0.00  0.00     0.083 H 
ATOM     15  H7  <0> d          -2.150   1.185   0.018  0.00  0.00     0.083 H 
ATOM     16  H8  <0> d          -2.220   3.637   0.043  0.00  0.00     0.086 H 
ENDROOT
BRANCH   1  17
ATOM     17  C1  <0> d           3.651   3.895  -0.012  0.00  0.00    -0.048 C 
ATOM     18  H2  <0> d           3.999   3.839  -1.043  0.00  0.00     0.033 H 
ATOM     19  H3  <0> d           4.166   4.707   0.501  0.00  0.00     0.033 H 
ATOM     20  H4  <0> d           3.862   2.954   0.495  0.00  0.00     0.033 H 
ENDBRANCH   1  17
TORSDOF 1
