REMARK  8 active torsions:
REMARK  status: ('A' for Active; 'I' for Inactive)
REMARK    1  A    between atoms: C1_1  and  C2_2 
REMARK    2  A    between atoms: C2_2  and  C3_3 
REMARK    3  A    between atoms: C3_3  and  C4_4 
REMARK    4  A    between atoms: C5_5  and  C6_6 
REMARK    5  A    between atoms: C6_6  and  O1_7 
REMARK    6  A    between atoms: C6_6  and  O2_9 
REMARK    7  A    between atoms: O1_7  and  C7_8 
REMARK    8  A    between atoms: O2_9  and  C8_10 
ROOT
ATOM      1  C4  <0> d           2.520   3.926   1.831  0.00  0.00    -0.102 C 
ATOM      2  C5  <0> d           1.698   3.570   0.875  0.00  0.00    -0.055 C 
ATOM      3  H8  <0> d           3.090   3.177   2.360  0.00  0.00     0.076 H 
ATOM      4  H9  <0> d           1.129   4.319   0.345  0.00  0.00     0.084 H 
ENDROOT
BRANCH   2   5
ATOM      5  C6  <0> d           1.548   2.114   0.514  0.00  0.00     0.147 C 
ATOM      6  H10 <0> d           2.197   1.513   1.151  0.00  0.00     0.135 H 
BRANCH   5   7
ATOM      7  O1  <0> d           0.190   1.714   0.705  0.00  0.00    -0.363 OA
BRANCH   7   8
ATOM      8  C7  <0> d           0.004   0.298   0.763  0.00  0.00     0.007 C 
ATOM      9  H11 <0> d           0.089  -0.121  -0.239  0.00  0.00     0.066 H 
ATOM     10  H12 <0> d           0.766  -0.142   1.407  0.00  0.00     0.066 H 
ATOM     11  H13 <0> d          -0.984   0.078   1.167  0.00  0.00     0.066 H 
ENDBRANCH   7   8
ENDBRANCH   5   7
BRANCH   5  12
ATOM     12  O2  <0> d           1.914   1.923  -0.854  0.00  0.00    -0.363 OA
BRANCH  12  13
ATOM     13  C8  <0> d           2.182   0.562  -1.199  0.00  0.00     0.007 C 
ATOM     14  H14 <0> d           2.700   0.526  -2.158  0.00  0.00     0.066 H 
ATOM     15  H15 <0> d           2.809   0.110  -0.431  0.00  0.00     0.066 H 
ATOM     16  H16 <0> d           1.243   0.014  -1.272  0.00  0.00     0.066 H 
ENDBRANCH  12  13
ENDBRANCH   5  12
ENDBRANCH   2   5
BRANCH   1  17
ATOM     17  C3  <0> d           2.670   5.382   2.192  0.00  0.00    -0.050 C 
ATOM     18  H6  <0> d           3.684   5.710   1.962  0.00  0.00     0.038 H 
ATOM     19  H7  <0> d           1.958   5.974   1.617  0.00  0.00     0.038 H 
BRANCH  17  20
ATOM     20  C2  <0> d           2.400   5.567   3.686  0.00  0.00    -0.066 C 
ATOM     21  H4  <0> d           1.386   5.239   3.916  0.00  0.00     0.032 H 
ATOM     22  H5  <0> d           3.113   4.975   4.260  0.00  0.00     0.032 H 
BRANCH  20  23
ATOM     23  C1  <0> d           2.552   7.045   4.053  0.00  0.00    -0.076 C 
ATOM     24  H1  <0> d           2.360   7.177   5.117  0.00  0.00     0.027 H 
ATOM     25  H2  <0> d           3.566   7.373   3.823  0.00  0.00     0.027 H 
ATOM     26  H3  <0> d           1.840   7.637   3.478  0.00  0.00     0.027 H 
ENDBRANCH  20  23
ENDBRANCH  17  20
ENDBRANCH   1  17
TORSDOF 8
