REMARK  0 active torsions:
REMARK  status: ('A' for Active; 'I' for Inactive)
ROOT
ATOM      1  C1  <0> d          -0.045   3.716   0.022  0.00  0.00    -0.074 A 
ATOM      2  C2  <0> d           1.164   3.020   0.007  0.00  0.00    -0.031 A 
ATOM      3  C3  <0> d           1.162   1.655  -0.000  0.00  0.00     0.181 A 
ATOM      4  N1  <0> d          -0.011   0.966   0.007  0.00  0.00    -0.302 N 
ATOM      5  H1  <0> d          -0.003  -0.134   0.006  0.00  0.00     0.171 HD
ATOM      6  C4  <0> d          -1.190   1.616   0.017  0.00  0.00     0.247 A 
ATOM      7  O1  <0> d          -2.235   0.984   0.018  0.00  0.00    -0.268 OA
ATOM      8  C5  <0> d          -1.221   3.017   0.030  0.00  0.00    -0.017 A 
ATOM      9  O2  <0> d           2.335   0.983  -0.015  0.00  0.00    -0.172 OA
ATOM     10  H2  <0> d          -0.053   4.796   0.028  0.00  0.00     0.083 H 
ATOM     11  H3  <0> d           2.099   3.560   0.002  0.00  0.00     0.090 H 
ATOM     12  H4  <0> d          -2.166   3.540   0.042  0.00  0.00     0.092 H 
ENDROOT
TORSDOF 0
