REMARK  3 active torsions:
REMARK  status: ('A' for Active; 'I' for Inactive)
REMARK    1  A    between atoms: C1_1  and  C2_2 
REMARK    2  A    between atoms: C3_3  and  C5_8 
REMARK    3  A    between atoms: C5_8  and  O1_9 
ROOT
ATOM      1  C2  <0> d           0.002  -0.004   0.002  0.00  0.00     0.060 A 
ATOM      2  C3  <0> d           0.008  -0.818  -1.135  0.00  0.00     0.008 A 
ATOM      3  C4  <0> d           0.028  -2.107  -0.725  0.00  0.00     0.006 A 
ATOM      4  N1  <0> d           0.034  -2.109   0.625  0.00  0.00    -0.288 N 
ATOM      5  H1  <0> d           0.048  -2.894   1.194  0.00  0.00     0.188 HD
ATOM      6  N2  <0> d           0.023  -0.777   1.058  0.00  0.00    -0.180 NA
ATOM      7  H5  <0> d           0.037  -2.978  -1.363  0.00  0.00     0.114 H 
ENDROOT
BRANCH   2   8
ATOM      8  C5  <0> d          -0.006  -0.343  -2.566  0.00  0.00     0.044 C 
ATOM      9  H6  <0> d          -0.906   0.246  -2.744  0.00  0.00     0.081 H 
ATOM     10  H7  <0> d           0.874   0.272  -2.753  0.00  0.00     0.081 H 
BRANCH   8  11
ATOM     11  O1  <0> d           0.006  -1.471  -3.442  0.00  0.00    -0.396 OA
ATOM     12  H8  <0> d          -0.002  -1.240  -4.381  0.00  0.00     0.209 HD
ENDBRANCH   8  11
ENDBRANCH   2   8
BRANCH   1  13
ATOM     13  C1  <0> d          -0.018   1.503   0.010  0.00  0.00    -0.033 C 
ATOM     14  H2  <0> d           1.004   1.880   0.003  0.00  0.00     0.035 H 
ATOM     15  H3  <0> d          -0.545   1.864  -0.873  0.00  0.00     0.035 H 
ATOM     16  H4  <0> d          -0.529   1.854   0.907  0.00  0.00     0.035 H 
ENDBRANCH   1  13
TORSDOF 3
