REMARK  3 active torsions:
REMARK  status: ('A' for Active; 'I' for Inactive)
REMARK    1  A    between atoms: C1_1  and  C2_2 
REMARK    2  A    between atoms: C4_5  and  C7_9 
REMARK    3  A    between atoms: C4_5  and  C8_10 
ROOT
ATOM      1  C2  <0> d           1.425   1.982  -0.001  0.00  0.00     0.001 C 
ATOM      2  H1  <0> d           1.727   2.189  -0.931  0.00  0.00     0.051 H 
ATOM      3  C3  <0> d           2.224   0.794   0.590  0.00  0.00    -0.049 C 
ATOM      4  C4  <0> d           1.485  -0.431  -0.005  0.00  0.00    -0.041 C 
ATOM      5  C5  <0> d           0.002  -0.004   0.002  0.00  0.00    -0.003 C 
ATOM      6  C6  <0> d          -0.018   1.510   0.010  0.00  0.00     0.131 C 
ATOM      7  O1  <0> d          -1.001   2.213   0.019  0.00  0.00    -0.298 OA
ATOM      8  H5  <0> d           2.165   0.791   1.679  0.00  0.00     0.035 H 
ATOM      9  H6  <0> d           3.261   0.820   0.257  0.00  0.00     0.035 H 
ATOM     10  H7  <0> d          -0.447  -0.374   0.815  0.00  0.00     0.045 H 
ATOM     11  H8  <0> d          -0.498  -0.379  -0.891  0.00  0.00     0.045 H 
ENDROOT
BRANCH   4  12
ATOM     12  C7  <0> d           1.693  -1.665   0.875  0.00  0.00    -0.069 C 
ATOM     13  H9  <0> d           1.106  -2.495   0.482  0.00  0.00     0.028 H 
ATOM     14  H10 <0> d           2.749  -1.935   0.878  0.00  0.00     0.028 H 
ATOM     15  H11 <0> d           1.372  -1.443   1.893  0.00  0.00     0.028 H 
ENDBRANCH   4  12
BRANCH   4  16
ATOM     16  C8  <0> d           1.959  -0.703  -1.434  0.00  0.00    -0.069 C 
ATOM     17  H12 <0> d           1.825   0.195  -2.038  0.00  0.00     0.028 H 
ATOM     18  H13 <0> d           3.013  -0.978  -1.421  0.00  0.00     0.028 H 
ATOM     19  H14 <0> d           1.376  -1.519  -1.862  0.00  0.00     0.028 H 
ENDBRANCH   4  16
BRANCH   1  20
ATOM     20  C1  <0> d           1.588   3.225   0.876  0.00  0.00    -0.066 C 
ATOM     21  H2  <0> d           1.276   2.994   1.895  0.00  0.00     0.028 H 
ATOM     22  H3  <0> d           2.633   3.534   0.878  0.00  0.00     0.028 H 
ATOM     23  H4  <0> d           0.970   4.032   0.482  0.00  0.00     0.028 H 
ENDBRANCH   1  20
TORSDOF 3
