REMARK  0 active torsions:
REMARK  status: ('A' for Active; 'I' for Inactive)
ROOT
ATOM      1  C1  <0> d          -1.188   3.164  -0.973  0.00  0.00    -0.053 C 
ATOM      2  C2  <0> d          -0.142   4.190  -0.521  0.00  0.00    -0.020 C 
ATOM      3  C3  <0> d           1.149   3.480  -0.250  0.00  0.00     0.099 A 
ATOM      4  C4  <0> d           1.216   2.019   0.001  0.00  0.00     0.159 A 
ATOM      5  N1  <0> d           2.475   1.803   0.172  0.00  0.00    -0.099 NA
ATOM      6  O1  <0> d           3.069   2.864   0.065  0.00  0.00    -0.106 OA
ATOM      7  N2  <0> d           2.379   3.840  -0.172  0.00  0.00    -0.107 NA
ATOM      8  C5  <0> d          -0.014   1.204   0.009  0.00  0.00     0.182 C 
ATOM      9  O2  <0> d           0.002  -0.004   0.002  0.00  0.00    -0.291 OA
ATOM     10  C6  <0> d          -1.307   2.011   0.019  0.00  0.00    -0.003 C 
ATOM     11  H1  <0> d          -2.156   3.658  -1.065  0.00  0.00     0.034 H 
ATOM     12  H2  <0> d          -0.899   2.765  -1.946  0.00  0.00     0.034 H 
ATOM     13  H3  <0> d          -0.485   4.684   0.389  0.00  0.00     0.042 H 
ATOM     14  H4  <0> d           0.007   4.932  -1.305  0.00  0.00     0.042 H 
ATOM     15  H5  <0> d          -2.072   1.423  -0.244  0.00  0.00     0.044 H 
ATOM     16  H6  <0> d          -1.480   2.410   1.018  0.00  0.00     0.044 H 
ENDROOT
TORSDOF 0
