REMARK  4 active torsions:
REMARK  status: ('A' for Active; 'I' for Inactive)
REMARK    1  A    between atoms: C1_1  and  C2_2 
REMARK    2  A    between atoms: C4_5  and  C8_12 
REMARK    3  A    between atoms: C4_5  and  C9_13 
REMARK    4  A    between atoms: C5_7  and  C6_10 
ROOT
ATOM      1  C2  <0> d          -0.017   1.427   0.010  0.00  0.00     0.041 C 
ATOM      2  H1  <0> d          -0.542   1.789  -0.874  0.00  0.00     0.083 H 
ATOM      3  C3  <0> d           1.425   1.944  -0.001  0.00  0.00    -0.013 C 
ATOM      4  C4  <0> d           2.164   1.325  -1.193  0.00  0.00     0.059 C 
ATOM      5  O1  <0> d           2.045  -0.099  -1.124  0.00  0.00    -0.348 OA
ATOM      6  C5  <0> d           0.693  -0.565  -1.117  0.00  0.00     0.149 C 
ATOM      7  H2  <0> d           0.199  -0.260  -2.039  0.00  0.00     0.136 H 
ATOM      8  O2  <0> d           0.002  -0.004   0.002  0.00  0.00    -0.353 OA
ATOM      9  H6  <0> d           1.423   3.030  -0.097  0.00  0.00     0.041 H 
ATOM     10  H7  <0> d           1.923   1.658   0.926  0.00  0.00     0.041 H 
ENDROOT
BRANCH   4  11
ATOM     11  C8  <0> d           3.642   1.718  -1.140  0.00  0.00    -0.048 C 
ATOM     12  H11 <0> d           4.168   1.270  -1.983  0.00  0.00     0.031 H 
ATOM     13  H12 <0> d           3.731   2.804  -1.192  0.00  0.00     0.031 H 
ATOM     14  H13 <0> d           4.079   1.362  -0.207  0.00  0.00     0.031 H 
ENDBRANCH   4  11
BRANCH   4  15
ATOM     15  C9  <0> d           1.544   1.829  -2.498  0.00  0.00    -0.048 C 
ATOM     16  H14 <0> d           0.490   1.551  -2.530  0.00  0.00     0.031 H 
ATOM     17  H15 <0> d           1.635   2.914  -2.548  0.00  0.00     0.031 H 
ATOM     18  H16 <0> d           2.064   1.380  -3.344  0.00  0.00     0.031 H 
ENDBRANCH   4  15
BRANCH   1  19
ATOM     19  C1  <0> d          -0.730   1.922   1.270  0.00  0.00    -0.052 C 
ATOM     20  H3  <0> d          -0.200   1.562   2.152  0.00  0.00     0.030 H 
ATOM     21  H4  <0> d          -0.744   3.012   1.275  0.00  0.00     0.030 H 
ATOM     22  H5  <0> d          -1.752   1.546   1.281  0.00  0.00     0.030 H 
ENDBRANCH   1  19
BRANCH   6  23
ATOM     23  C6  <0> d           0.680  -2.068  -1.013  0.00  0.00    -0.060 C 
ATOM     24  C7  <0> d           0.125  -2.785  -1.959  0.00  0.00    -0.120 C 
ATOM     25  H9  <0> d          -0.323  -2.299  -2.813  0.00  0.00     0.066 H 
ATOM     26  H10 <0> d           0.116  -3.862  -1.885  0.00  0.00     0.066 H 
ATOM     27  H8  <0> d           1.128  -2.555  -0.160  0.00  0.00     0.083 H 
ENDBRANCH   6  23
TORSDOF 4
