REMARK  3 active torsions:
REMARK  status: ('A' for Active; 'I' for Inactive)
REMARK    1  A    between atoms: C1_1  and  C2_2 
REMARK    2  A    between atoms: C2_2  and  C3_3 
REMARK    3  A    between atoms: C2_2  and  C4_4 
ROOT
ATOM      1  C4  <0> d          -0.786   1.609   1.234  0.00  0.00     0.038 A 
ATOM      2  H1  <0> d          -1.157   0.779   1.835  0.00  0.00     0.076 H 
ATOM      3  C5  <0> d          -0.013   1.086   0.008  0.00  0.00     0.050 A 
ATOM      4  O1  <0> d          -0.766   1.593  -1.131  0.00  0.00    -0.302 OA
ATOM      5  C6  <0> d          -1.815   2.299  -0.694  0.00  0.00     0.361 A 
ATOM      6  O2  <0> d          -2.612   2.833  -1.440  0.00  0.00    -0.239 OA
ATOM      7  N1  <0> d          -1.908   2.361   0.641  0.00  0.00    -0.330 N 
ATOM      8  H9  <0> d           0.002  -0.004   0.002  0.00  0.00     0.078 H 
ATOM      9  H10 <0> d           1.003   1.481   0.000  0.00  0.00     0.078 H 
ATOM     10  H11 <0> d          -2.599   2.825   1.138  0.00  0.00     0.165 HD
ENDROOT
BRANCH   1  11
ATOM     11  C2  <0> d           0.098   2.531   2.074  0.00  0.00    -0.039 C 
ATOM     12  H5  <0> d           0.417   3.380   1.469  0.00  0.00     0.042 H 
BRANCH  11  13
ATOM     13  C1  <0> d          -0.693   3.035   3.283  0.00  0.00    -0.071 C 
ATOM     14  H2  <0> d          -1.012   2.187   3.888  0.00  0.00     0.028 H 
ATOM     15  H3  <0> d          -0.063   3.693   3.881  0.00  0.00     0.028 H 
ATOM     16  H4  <0> d          -1.569   3.586   2.939  0.00  0.00     0.028 H 
ENDBRANCH  11  13
BRANCH  11  17
ATOM     17  C3  <0> d           1.328   1.759   2.556  0.00  0.00    -0.071 C 
ATOM     18  H6  <0> d           1.892   1.399   1.696  0.00  0.00     0.028 H 
ATOM     19  H7  <0> d           1.958   2.416   3.155  0.00  0.00     0.028 H 
ATOM     20  H8  <0> d           1.009   0.910   3.162  0.00  0.00     0.028 H 
ENDBRANCH  11  17
ENDBRANCH   1  11
TORSDOF 3
