REMARK  3 active torsions:
REMARK  status: ('A' for Active; 'I' for Inactive)
REMARK    1  A    between atoms: C1_1  and  C2_2 
REMARK    2  A    between atoms: C2_2  and  C3_3 
REMARK    3  A    between atoms: C3_3  and  C4_4 
ROOT
ATOM      1  C4  <0> d           0.739  -2.004  -1.265  0.00  0.00     0.066 A 
ATOM      2  C5  <0> d           1.747  -2.714  -0.584  0.00  0.00     0.278 A 
ATOM      3  O1  <0> d           2.620  -2.113   0.024  0.00  0.00    -0.265 OA
ATOM      4  N1  <0> d           1.740  -4.060  -0.608  0.00  0.00    -0.205 NA
ATOM      5  C6  <0> d           0.814  -4.715  -1.252  0.00  0.00     0.069 A 
ATOM      6  N2  <0> d          -0.168  -4.075  -1.917  0.00  0.00    -0.329 N 
ATOM      7  C7  <0> d          -0.222  -2.711  -1.928  0.00  0.00     0.191 A 
ATOM      8  O2  <0> d          -1.211  -2.069  -2.590  0.00  0.00    -0.171 OA
ATOM      9  H8  <0> d           0.835  -5.795  -1.253  0.00  0.00     0.143 H 
ATOM     10  H9  <0> d          -0.843  -4.588  -2.388  0.00  0.00     0.168 HD
ENDROOT
BRANCH   1  11
ATOM     11  C3  <0> d           0.718  -0.497  -1.257  0.00  0.00    -0.032 C 
ATOM     12  H6  <0> d           0.191  -0.136  -2.140  0.00  0.00     0.040 H 
ATOM     13  H7  <0> d           1.741  -0.120  -1.264  0.00  0.00     0.040 H 
BRANCH  11  14
ATOM     14  C2  <0> d           0.002  -0.004   0.002  0.00  0.00    -0.064 C 
ATOM     15  H4  <0> d           0.529  -0.365   0.885  0.00  0.00     0.032 H 
ATOM     16  H5  <0> d          -1.020  -0.381   0.010  0.00  0.00     0.032 H 
BRANCH  14  17
ATOM     17  C1  <0> d          -0.019   1.526   0.010  0.00  0.00    -0.076 C 
ATOM     18  H1  <0> d           1.004   1.903   0.003  0.00  0.00     0.027 H 
ATOM     19  H2  <0> d          -0.546   1.887  -0.873  0.00  0.00     0.027 H 
ATOM     20  H3  <0> d          -0.529   1.877   0.907  0.00  0.00     0.027 H 
ENDBRANCH  14  17
ENDBRANCH  11  14
ENDBRANCH   1  11
TORSDOF 3
