REMARK  2 active torsions:
REMARK  status: ('A' for Active; 'I' for Inactive)
REMARK    1  A    between atoms: C6_6  and  O1_7 
REMARK    2  A    between atoms: O1_7  and  C7_8 
ROOT
ATOM      1  C7  <0> d           2.423   4.111   0.001  0.00  0.00     0.104 C 
ATOM      2  C8  <0> d           2.212   5.567   0.010  0.00  0.00     0.085 C 
ATOM      3  N1  <0> d           2.049   6.691   0.017  0.00  0.00    -0.195 NA
ATOM      4  H5  <0> d           2.992   3.820   0.884  0.00  0.00     0.097 H 
ATOM      5  H6  <0> d           2.976   3.829  -0.896  0.00  0.00     0.097 H 
ENDROOT
BRANCH   1   6
ATOM      6  O1  <0> d           1.158   3.446   0.009  0.00  0.00    -0.338 OA
BRANCH   6   7
ATOM      7  C6  <0> d           1.175   2.087   0.002  0.00  0.00     0.070 A 
ATOM      8  C1  <0> d          -0.017   1.377   0.010  0.00  0.00    -0.048 A 
ATOM      9  C2  <0> d           0.002  -0.004   0.002  0.00  0.00    -0.043 A 
ATOM     10  H1  <0> d          -0.959   1.905   0.017  0.00  0.00     0.087 H 
ATOM     11  C3  <0> d           1.210  -0.681  -0.013  0.00  0.00     0.116 A 
ATOM     12  H2  <0> d          -0.926  -0.556   0.008  0.00  0.00     0.088 H 
ATOM     13  C4  <0> d           2.401   0.026  -0.021  0.00  0.00    -0.043 A 
ATOM     14  F1  <0> d           1.227  -2.031  -0.020  0.00  0.00    -0.206 F 
ATOM     15  C5  <0> d           2.385   1.407  -0.013  0.00  0.00    -0.048 A 
ATOM     16  H3  <0> d           3.342  -0.503  -0.033  0.00  0.00     0.088 H 
ATOM     17  H4  <0> d           3.314   1.958  -0.018  0.00  0.00     0.087 H 
ENDBRANCH   6   7
ENDBRANCH   1   6
TORSDOF 2
