REMARK  4 active torsions:
REMARK  status: ('A' for Active; 'I' for Inactive)
REMARK    1  A    between atoms: C1_1  and  N1_2 
REMARK    2  A    between atoms: C2_3  and  S1_8 
REMARK    3  A    between atoms: C3_5  and  N4_7 
REMARK    4  A    between atoms: S1_8  and  C4_9 
ROOT
ATOM      1  N1  <0> d          -0.698   1.558   1.213  0.00  0.00    -0.235 N 
ATOM      2  C2  <0> d          -0.135   1.829   2.410  0.00  0.00     0.203 A 
ATOM      3  N2  <0> d          -1.088   2.228   3.227  0.00  0.00    -0.036 NA
ATOM      4  C3  <0> d          -2.262   2.222   2.585  0.00  0.00     0.739 A 
ATOM      5  N3  <0> d          -2.070   1.825   1.350  0.00  0.00     0.022 NA
ENDROOT
BRANCH   2   6
ATOM      6  S1  <0> d           1.574   1.676   2.809  0.00  0.00    -0.094 SA
BRANCH   6   7
ATOM      7  C4  <0> d           1.541   2.203   4.540  0.00  0.00    -0.027 C 
ATOM      8  H6  <0> d           2.550   2.165   4.951  0.00  0.00     0.042 H 
ATOM      9  H7  <0> d           1.161   3.222   4.603  0.00  0.00     0.042 H 
ATOM     10  H8  <0> d           0.892   1.538   5.110  0.00  0.00     0.042 H 
ENDBRANCH   6   7
ENDBRANCH   2   6
BRANCH   1  11
ATOM     11  C1  <0> d          -0.013   1.086   0.008  0.00  0.00     0.005 C 
ATOM     12  H1  <0> d           0.002  -0.004   0.002  0.00  0.00     0.059 H 
ATOM     13  H2  <0> d           1.010   1.463   0.000  0.00  0.00     0.059 H 
ATOM     14  H3  <0> d          -0.540   1.447  -0.875  0.00  0.00     0.059 H 
ENDBRANCH   1  11
BRANCH   4  15
ATOM     15  N4  <0> d          -3.490   2.586   3.138  0.00  0.00    -0.230 N 
ATOM     16  H4  <0> d          -3.539   2.873   4.064  0.00  0.00     0.174 HD
ATOM     17  H5  <0> d          -4.295   2.552   2.597  0.00  0.00     0.174 HD
ENDBRANCH   4  15
TORSDOF 4
