REMARK  3 active torsions:
REMARK  status: ('A' for Active; 'I' for Inactive)
REMARK    1  A    between atoms: C2_2  and  C3_3 
REMARK    2  A    between atoms: C3_3  and  N1_4 
REMARK    3  A    between atoms: N1_4  and  C4_5 
ROOT
ATOM      1  C4  <0> d          -0.204   1.220   2.476  0.00  0.00     0.045 A 
ATOM      2  C5  <0> d          -0.845   1.669   3.629  0.00  0.00    -0.055 A 
ATOM      3  C6  <0> d          -0.321   1.303   4.857  0.00  0.00    -0.064 A 
ATOM      4  C7  <0> d           0.819   0.521   4.899  0.00  0.00     0.002 A 
ATOM      5  N2  <0> d           1.405   0.117   3.789  0.00  0.00    -0.271 NA
ATOM      6  C8  <0> d           0.936   0.437   2.600  0.00  0.00     0.027 A 
ATOM      7  H7  <0> d          -1.731   2.283   3.566  0.00  0.00     0.087 H 
ATOM      8  H8  <0> d          -0.793   1.630   5.772  0.00  0.00     0.085 H 
ATOM      9  H9  <0> d           1.234   0.236   5.855  0.00  0.00     0.114 H 
ATOM     10  H10 <0> d           1.443   0.087   1.713  0.00  0.00     0.118 H 
ENDROOT
BRANCH   1  11
ATOM     11  N1  <0> d          -0.698   1.558   1.213  0.00  0.00    -0.385 N 
ATOM     12  H6  <0> d          -1.602   2.179   1.124  0.00  0.00     0.160 HD
BRANCH  11  13
ATOM     13  C3  <0> d          -0.013   1.086   0.008  0.00  0.00     0.007 C 
ATOM     14  H4  <0> d           0.002  -0.014   0.002  0.00  0.00     0.070 H 
ATOM     15  H5  <0> d           1.019   1.466   0.000  0.00  0.00     0.070 H 
BRANCH  13  16
ATOM     16  C2  <0> d          -0.742   1.585  -1.213  0.00  0.00    -0.095 C 
ATOM     17  C1  <0> d          -0.098   2.269  -2.126  0.00  0.00    -0.123 C 
ATOM     18  H1  <0> d          -0.630   2.634  -3.017  0.00  0.00     0.066 H 
ATOM     19  H2  <0> d           0.975   2.479  -2.001  0.00  0.00     0.066 H 
ATOM     20  H3  <0> d          -1.814   1.375  -1.337  0.00  0.00     0.078 H 
ENDBRANCH  13  16
ENDBRANCH  11  13
ENDBRANCH   1  11
TORSDOF 3
