REMARK  5 active torsions:
REMARK  status: ('A' for Active; 'I' for Inactive)
REMARK    1  A    between atoms: C1_1  and  C2_2 
REMARK    2  A    between atoms: C4_4  and  C10_11 
REMARK    3  A    between atoms: C5_5  and  C9_10 
REMARK    4  A    between atoms: C6_6  and  O1_9 
REMARK    5  A    between atoms: C7_7  and  C8_8 
ROOT
ATOM      1  C2  <0> d           0.002  -0.004   0.002  0.00  0.00    -0.053 A 
ATOM      2  C3  <0> d           0.006  -0.688  -1.200  0.00  0.00    -0.070 A 
ATOM      3  C4  <0> d           0.025  -2.071  -1.210  0.00  0.00    -0.053 A 
ATOM      4  C5  <0> d           0.040  -2.772  -0.020  0.00  0.00    -0.022 A 
ATOM      5  C6  <0> d           0.036  -2.088   1.187  0.00  0.00     0.078 A 
ATOM      6  C7  <0> d           0.023  -0.701   1.195  0.00  0.00    -0.022 A 
ATOM      7  H4  <0> d          -0.007  -0.142  -2.131  0.00  0.00     0.085 H 
ENDROOT
BRANCH   1   8
ATOM      8  C1  <0> d          -0.018   1.503   0.010  0.00  0.00    -0.051 C 
ATOM      9  H1  <0> d           1.004   1.880   0.003  0.00  0.00     0.033 H 
ATOM     10  H2  <0> d          -0.545   1.864  -0.873  0.00  0.00     0.033 H 
ATOM     11  H3  <0> d          -0.529   1.854   0.907  0.00  0.00     0.033 H 
ENDBRANCH   1   8
BRANCH   6  12
ATOM     12  C8  <0> d           0.025   0.046   2.504  0.00  0.00    -0.048 C 
ATOM     13  H5  <0> d          -1.002   0.212   2.829  0.00  0.00     0.033 H 
ATOM     14  H6  <0> d           0.554  -0.540   3.256  0.00  0.00     0.033 H 
ATOM     15  H7  <0> d           0.525   1.006   2.374  0.00  0.00     0.033 H 
ENDBRANCH   6  12
BRANCH   5  16
ATOM     16  O1  <0> d           0.051  -2.775   2.359  0.00  0.00    -0.360 OA
ATOM     17  H8  <0> d           0.939  -2.962   2.694  0.00  0.00     0.217 HD
ENDBRANCH   5  16
BRANCH   3  18
ATOM     18  C10 <0> d           0.029  -2.813  -2.522  0.00  0.00    -0.051 C 
ATOM     19  H12 <0> d           1.058  -2.978  -2.843  0.00  0.00     0.033 H 
ATOM     20  H13 <0> d          -0.471  -3.774  -2.397  0.00  0.00     0.033 H 
ATOM     21  H14 <0> d          -0.497  -2.225  -3.274  0.00  0.00     0.033 H 
ENDBRANCH   3  18
BRANCH   4  22
ATOM     22  C9  <0> d           0.060  -4.279  -0.033  0.00  0.00    -0.048 C 
ATOM     23  H9  <0> d           1.092  -4.628  -0.041  0.00  0.00     0.033 H 
ATOM     24  H10 <0> d          -0.445  -4.656   0.856  0.00  0.00     0.033 H 
ATOM     25  H11 <0> d          -0.453  -4.641  -0.924  0.00  0.00     0.033 H 
ENDBRANCH   4  22
TORSDOF 5
