REMARK  8 active torsions:
REMARK  status: ('A' for Active; 'I' for Inactive)
REMARK    1  A    between atoms: C1_1  and  C2_2 
REMARK    2  A    between atoms: C2_2  and  C3_3 
REMARK    3  A    between atoms: C3_3  and  C4_4 
REMARK    4  A    between atoms: C4_4  and  O1_5 
REMARK    5  A    between atoms: O1_5  and  C5_6 
REMARK    6  A    between atoms: C5_6  and  C6_8 
REMARK    7  A    between atoms: C6_8  and  O3_9 
REMARK    8  A    between atoms: O3_9  and  C7_10 
ROOT
ATOM      1  C4  <0> d          -1.413  -2.063   0.004  0.00  0.00     0.029 C 
ATOM      2  H8  <0> d          -0.902  -2.415  -0.892  0.00  0.00     0.075 H 
ATOM      3  H9  <0> d          -0.885  -2.425   0.887  0.00  0.00     0.075 H 
ENDROOT
BRANCH   1   4
ATOM      4  C3  <0> d          -1.433  -0.534   0.013  0.00  0.00    -0.045 C 
ATOM      5  H6  <0> d          -1.944  -0.182   0.910  0.00  0.00     0.036 H 
ATOM      6  H7  <0> d          -1.960  -0.173  -0.870  0.00  0.00     0.036 H 
BRANCH   4   7
ATOM      7  C2  <0> d           0.002  -0.004   0.002  0.00  0.00    -0.067 C 
ATOM      8  H4  <0> d           0.512  -0.356  -0.895  0.00  0.00     0.032 H 
ATOM      9  H5  <0> d           0.529  -0.365   0.885  0.00  0.00     0.032 H 
BRANCH   7  10
ATOM     10  C1  <0> d          -0.019   1.526   0.010  0.00  0.00    -0.076 C 
ATOM     11  H1  <0> d           1.004   1.903   0.003  0.00  0.00     0.027 H 
ATOM     12  H2  <0> d          -0.546   1.887  -0.873  0.00  0.00     0.027 H 
ATOM     13  H3  <0> d          -0.529   1.877   0.907  0.00  0.00     0.027 H 
ENDBRANCH   7  10
ENDBRANCH   4   7
ENDBRANCH   1   4
BRANCH   1  14
ATOM     14  O1  <0> d          -2.753  -2.558   0.015  0.00  0.00    -0.320 OA
BRANCH  14  15
ATOM     15  C5  <0> d          -2.911  -3.891   0.009  0.00  0.00     0.282 C 
ATOM     16  O2  <0> d          -1.943  -4.614  -0.004  0.00  0.00    -0.263 OA
BRANCH  15  17
ATOM     17  C6  <0> d          -4.296  -4.486   0.019  0.00  0.00     0.099 C 
ATOM     18  H10 <0> d          -4.824  -4.162   0.916  0.00  0.00     0.089 H 
ATOM     19  H11 <0> d          -4.841  -4.152  -0.864  0.00  0.00     0.089 H 
BRANCH  17  20
ATOM     20  O3  <0> d          -4.201  -5.912   0.010  0.00  0.00    -0.386 OA
BRANCH  20  21
ATOM     21  C7  <0> d          -5.466  -6.578   0.019  0.00  0.00     0.005 C 
ATOM     22  H12 <0> d          -5.308  -7.656   0.012  0.00  0.00     0.066 H 
ATOM     23  H13 <0> d          -6.018  -6.297   0.916  0.00  0.00     0.066 H 
ATOM     24  H14 <0> d          -6.035  -6.288  -0.864  0.00  0.00     0.066 H 
ENDBRANCH  20  21
ENDBRANCH  17  20
ENDBRANCH  15  17
ENDBRANCH  14  15
ENDBRANCH   1  14
TORSDOF 8
