REMARK  2 active torsions:
REMARK  status: ('A' for Active; 'I' for Inactive)
REMARK    1  A    between atoms: C1_1  and  N1_2 
REMARK    2  A    between atoms: C2_4  and  N5_7 
ROOT
ATOM      1  N1  <0> d          -0.018   1.461   0.010  0.00  0.00    -0.158 N 
ATOM      2  N2  <0> d           1.100   2.311   0.004  0.00  0.00     0.041 NA
ATOM      3  C2  <0> d           0.622   3.538   0.015  0.00  0.00     0.758 A 
ATOM      4  N3  <0> d          -0.709   3.449   0.027  0.00  0.00     0.065 NA
ATOM      5  N4  <0> d          -1.065   2.213   0.018  0.00  0.00    -0.032 NA
ENDROOT
BRANCH   1   6
ATOM      6  C1  <0> d           0.002  -0.004   0.002  0.00  0.00     0.022 C 
ATOM      7  H1  <0> d           1.044  -0.357  -0.004  0.00  0.00     0.062 H 
ATOM      8  H2  <0> d          -0.515  -0.373  -0.896  0.00  0.00     0.062 H 
ATOM      9  H3  <0> d          -0.508  -0.383   0.900  0.00  0.00     0.062 H 
ENDBRANCH   1   6
BRANCH   3  10
ATOM     10  N5  <0> d           1.370   4.716   0.014  0.00  0.00    -0.228 N 
ATOM     11  H4  <0> d           0.861   5.691   0.024  0.00  0.00     0.174 HD
ATOM     12  H5  <0> d           2.469   4.670   0.003  0.00  0.00     0.174 HD
ENDBRANCH   3  10
TORSDOF 2
