REMARK  1 active torsions:
REMARK  status: ('A' for Active; 'I' for Inactive)
REMARK    1  A    between atoms: C1_1  and  C2_2 
ROOT
ATOM      1  C2  <0> d          -1.064  -2.040   0.000  0.00  0.00     0.122 A 
ATOM      2  N1  <0> d           0.080  -2.708  -0.014  0.00  0.00    -0.245 NA
ATOM      3  C3  <0> d           1.243  -2.087  -0.021  0.00  0.00     0.016 A 
ATOM      4  C4  <0> d           1.249  -0.681  -0.013  0.00  0.00     0.010 A 
ATOM      5  C5  <0> d           2.440   0.060  -0.020  0.00  0.00    -0.069 A 
ATOM      6  C6  <0> d           2.382   1.421  -0.011  0.00  0.00    -0.082 A 
ATOM      7  C7  <0> d           1.158   2.087   0.002  0.00  0.00    -0.081 A 
ATOM      8  C8  <0> d          -0.017   1.398   0.010  0.00  0.00    -0.054 A 
ATOM      9  C9  <0> d           0.002  -0.004   0.002  0.00  0.00     0.070 A 
ATOM     10  N2  <0> d          -1.123  -0.730   0.008  0.00  0.00    -0.233 NA
ATOM     11  H4  <0> d           2.167  -2.645  -0.034  0.00  0.00     0.116 H 
ATOM     12  H5  <0> d           3.395  -0.444  -0.032  0.00  0.00     0.085 H 
ATOM     13  H6  <0> d           3.299   1.992  -0.016  0.00  0.00     0.083 H 
ATOM     14  H7  <0> d           1.141   3.167   0.008  0.00  0.00     0.083 H 
ATOM     15  H8  <0> d          -0.958   1.929   0.017  0.00  0.00     0.087 H 
ENDROOT
BRANCH   1  16
ATOM     16  C1  <0> d          -2.354  -2.819   0.007  0.00  0.00    -0.019 C 
ATOM     17  H1  <0> d          -2.131  -3.896  -0.001  0.00  0.00     0.037 H 
ATOM     18  H2  <0> d          -2.944  -2.560  -0.884  0.00  0.00     0.037 H 
ATOM     19  H3  <0> d          -2.928  -2.570   0.912  0.00  0.00     0.037 H 
ENDBRANCH   1  16
TORSDOF 1
