REMARK  1 active torsions:
REMARK  status: ('A' for Active; 'I' for Inactive)
REMARK    1  A    between atoms: C9_9  and  O1_12 
ROOT
ATOM      1  C1  <0> d          -0.089  -2.774  -0.042  0.00  0.00    -0.082 A 
ATOM      2  C2  <0> d          -1.212  -2.043  -0.382  0.00  0.00    -0.082 A 
ATOM      3  C3  <0> d          -1.165  -0.665  -0.360  0.00  0.00    -0.076 A 
ATOM      4  C4  <0> d           0.002  -0.004   0.002  0.00  0.00    -0.049 A 
ATOM      5  C5  <0> d           1.121  -0.732   0.337  0.00  0.00    -0.052 A 
ATOM      6  C6  <0> d           1.071  -2.120   0.316  0.00  0.00    -0.076 A 
ATOM      7  C7  <0> d           2.423  -0.083   0.731  0.00  0.00    -0.038 C 
ATOM      8  C8  <0> d           2.199   1.377   1.120  0.00  0.00    -0.037 C 
ATOM      9  C9  <0> d           1.404   2.059  -0.000  0.00  0.00     0.039 C 
ATOM     10  H1  <0> d           1.873   1.850  -0.962  0.00  0.00     0.083 H 
ATOM     11  C10 <0> d          -0.018   1.502   0.010  0.00  0.00    -0.017 C 
ATOM     12  H2  <0> d          -0.120  -3.854  -0.056  0.00  0.00     0.083 H 
ATOM     13  H3  <0> d          -2.123  -2.550  -0.665  0.00  0.00     0.083 H 
ATOM     14  H4  <0> d          -2.043  -0.095  -0.626  0.00  0.00     0.084 H 
ATOM     15  H5  <0> d           1.948  -2.692   0.582  0.00  0.00     0.084 H 
ATOM     16  H6  <0> d           2.850  -0.619   1.578  0.00  0.00     0.040 H 
ATOM     17  H7  <0> d           3.115  -0.128  -0.110  0.00  0.00     0.040 H 
ATOM     18  H8  <0> d           1.636   1.426   2.052  0.00  0.00     0.037 H 
ATOM     19  H9  <0> d           3.160   1.875   1.245  0.00  0.00     0.037 H 
ATOM     20  H10 <0> d          -0.551   1.859  -0.871  0.00  0.00     0.043 H 
ATOM     21  H11 <0> d          -0.534   1.850   0.906  0.00  0.00     0.043 H 
ENDROOT
BRANCH   9  22
ATOM     22  O1  <0> d           1.370   3.470   0.224  0.00  0.00    -0.395 OA
ATOM     23  H12 <0> d           0.868   3.962  -0.441  0.00  0.00     0.210 HD
ENDBRANCH   9  22
TORSDOF 1
