REMARK  2 active torsions:
REMARK  status: ('A' for Active; 'I' for Inactive)
REMARK    1  A    between atoms: C2_2  and  C6_8 
REMARK    2  A    between atoms: C5_6  and  O1_7 
ROOT
ATOM      1  C1  <0> d           2.471   3.731  -0.002  0.00  0.00    -0.032 A 
ATOM      2  C2  <0> d           1.238   3.067   0.007  0.00  0.00     0.060 A 
ATOM      3  C3  <0> d           0.064   3.822   0.016  0.00  0.00     0.018 A 
ATOM      4  N1  <0> d           0.112   5.138   0.029  0.00  0.00    -0.269 NA
ATOM      5  C4  <0> d           1.256   5.795   0.021  0.00  0.00     0.034 A 
ATOM      6  C5  <0> d           2.469   5.119   0.006  0.00  0.00     0.084 A 
ATOM      7  H1  <0> d           3.398   3.178  -0.013  0.00  0.00     0.089 H 
ATOM      8  H2  <0> d          -0.893   3.322   0.018  0.00  0.00     0.116 H 
ATOM      9  H3  <0> d           1.248   6.875   0.027  0.00  0.00     0.119 H 
ENDROOT
BRANCH   2  10
ATOM     10  C6  <0> d           1.181   1.591  -0.001  0.00  0.00     0.210 C 
ATOM     11  O2  <0> d           2.208   0.943  -0.014  0.00  0.00    -0.644 OA
ATOM     12  O3  <0> d          -0.011   0.963   0.007  0.00  0.00    -0.644 OA
ENDBRANCH   2  10
BRANCH   6  13
ATOM     13  O1  <0> d           3.640   5.809  -0.002  0.00  0.00    -0.359 OA
ATOM     14  H4  <0> d           3.970   6.013  -0.887  0.00  0.00     0.217 HD
ENDBRANCH   6  13
TORSDOF 2
