REMARK  7 active torsions:
REMARK  status: ('A' for Active; 'I' for Inactive)
REMARK    1  A    between atoms: C1_1  and  C2_2 
REMARK    2  A    between atoms: C2_2  and  O1_3 
REMARK    3  A    between atoms: O1_3  and  C3_4 
REMARK    4  A    between atoms: C3_4  and  C4_5 
REMARK    5  A    between atoms: C3_4  and  O2_7 
REMARK    6  A    between atoms: O2_7  and  C6_8 
REMARK    7  A    between atoms: C6_8  and  C7_9 
ROOT
ATOM      1  C3  <0> d           1.206   2.011  -0.211  0.00  0.00     0.147 C 
ATOM      2  H6  <0> d           1.289   3.090  -0.334  0.00  0.00     0.135 H 
ENDROOT
BRANCH   1   3
ATOM      3  O1  <0> d           1.657   1.643   1.095  0.00  0.00    -0.358 OA
BRANCH   3   4
ATOM      4  C2  <0> d           2.663   2.507   1.627  0.00  0.00     0.020 C 
ATOM      5  H4  <0> d           3.492   2.576   0.922  0.00  0.00     0.073 H 
ATOM      6  H5  <0> d           2.242   3.499   1.790  0.00  0.00     0.073 H 
BRANCH   4   7
ATOM      7  C1  <0> d           3.170   1.942   2.955  0.00  0.00    -0.056 C 
ATOM      8  H1  <0> d           2.341   1.873   3.660  0.00  0.00     0.030 H 
ATOM      9  H2  <0> d           3.591   0.951   2.791  0.00  0.00     0.030 H 
ATOM     10  H3  <0> d           3.938   2.601   3.361  0.00  0.00     0.030 H 
ENDBRANCH   4   7
ENDBRANCH   3   4
ENDBRANCH   1   3
BRANCH   1  11
ATOM     11  C4  <0> d          -0.232   1.595  -0.382  0.00  0.00    -0.060 C 
ATOM     12  C5  <0> d          -1.148   2.495  -0.642  0.00  0.00    -0.120 C 
ATOM     13  H8  <0> d          -0.872   3.535  -0.730  0.00  0.00     0.066 H 
ATOM     14  H9  <0> d          -2.178   2.196  -0.769  0.00  0.00     0.066 H 
ATOM     15  H7  <0> d          -0.507   0.554  -0.294  0.00  0.00     0.083 H 
ENDBRANCH   1  11
BRANCH   1  16
ATOM     16  O2  <0> d           2.011   1.356  -1.194  0.00  0.00    -0.358 OA
BRANCH  16  17
ATOM     17  C6  <0> d           3.324   1.904  -1.328  0.00  0.00     0.020 C 
ATOM     18  H10 <0> d           3.254   2.978  -1.500  0.00  0.00     0.073 H 
ATOM     19  H11 <0> d           3.890   1.718  -0.415  0.00  0.00     0.073 H 
BRANCH  17  20
ATOM     20  C7  <0> d           4.034   1.243  -2.511  0.00  0.00    -0.056 C 
ATOM     21  H12 <0> d           4.104   0.169  -2.339  0.00  0.00     0.030 H 
ATOM     22  H13 <0> d           3.468   1.428  -3.424  0.00  0.00     0.030 H 
ATOM     23  H14 <0> d           5.036   1.660  -2.614  0.00  0.00     0.030 H 
ENDBRANCH  17  20
ENDBRANCH  16  17
ENDBRANCH   1  16
TORSDOF 7
