REMARK  4 active torsions:
REMARK  status: ('A' for Active; 'I' for Inactive)
REMARK    1  A    between atoms: C1_1  and  C2_2 
REMARK    2  A    between atoms: C6_6  and  N1_10 
REMARK    3  A    between atoms: C7_7  and  O1_8 
REMARK    4  A    between atoms: O1_8  and  C8_9 
ROOT
ATOM      1  C2  <0> d           0.002  -0.004   0.002  0.00  0.00    -0.026 A 
ATOM      2  C3  <0> d           0.006  -0.689  -1.200  0.00  0.00    -0.074 A 
ATOM      3  C4  <0> d           0.025  -2.071  -1.212  0.00  0.00    -0.080 A 
ATOM      4  C5  <0> d           0.040  -2.776  -0.023  0.00  0.00    -0.055 A 
ATOM      5  C6  <0> d           0.036  -2.096   1.186  0.00  0.00     0.060 A 
ATOM      6  C7  <0> d           0.023  -0.703   1.197  0.00  0.00     0.100 A 
ATOM      7  H4  <0> d          -0.007  -0.142  -2.131  0.00  0.00     0.084 H 
ATOM      8  H5  <0> d           0.028  -2.601  -2.153  0.00  0.00     0.083 H 
ATOM      9  H6  <0> d           0.054  -3.856  -0.035  0.00  0.00     0.087 H 
ENDROOT
BRANCH   6  10
ATOM     10  O1  <0> d           0.025  -0.030   2.380  0.00  0.00    -0.353 OA
BRANCH  10  11
ATOM     11  C8  <0> d          -1.247   0.273   2.956  0.00  0.00     0.010 C 
ATOM     12  H7  <0> d          -1.819   0.894   2.267  0.00  0.00     0.066 H 
ATOM     13  H8  <0> d          -1.790  -0.653   3.146  0.00  0.00     0.066 H 
ATOM     14  H9  <0> d          -1.103   0.809   3.894  0.00  0.00     0.066 H 
ENDBRANCH  10  11
ENDBRANCH   6  10
BRANCH   1  15
ATOM     15  C1  <0> d          -0.018   1.503   0.010  0.00  0.00    -0.049 C 
ATOM     16  H1  <0> d           1.004   1.880   0.003  0.00  0.00     0.033 H 
ATOM     17  H2  <0> d          -0.545   1.864  -0.873  0.00  0.00     0.033 H 
ATOM     18  H3  <0> d          -0.529   1.854   0.907  0.00  0.00     0.033 H 
ENDBRANCH   1  15
BRANCH   5  19
ATOM     19  N1  <0> d           0.051  -2.807   2.391  0.00  0.00    -0.397 N 
ATOM     20  H10 <0> d           0.064  -3.777   2.382  0.00  0.00     0.156 HD
ATOM     21  H11 <0> d           0.049  -2.331   3.236  0.00  0.00     0.156 HD
ENDBRANCH   5  19
TORSDOF 4
