REMARK  5 active torsions:
REMARK  status: ('A' for Active; 'I' for Inactive)
REMARK    1  A    between atoms: C1_1  and  C2_2 
REMARK    2  A    between atoms: N1_5  and  C7_11 
REMARK    3  A    between atoms: C5_7  and  C6_10 
REMARK    4  A    between atoms: C7_11  and  C8_12 
REMARK    5  A    between atoms: C7_11  and  C9_13 
ROOT
ATOM      1  C2  <0> d           0.002  -0.004   0.002  0.00  0.00     0.061 C 
ATOM      2  H1  <0> d          -1.020  -0.382   0.010  0.00  0.00     0.085 H 
ATOM      3  C3  <0> d           0.720  -0.499  -1.256  0.00  0.00     0.137 C 
ATOM      4  N1  <0> d           2.120  -0.050  -1.224  0.00  0.00     0.097 N 
ATOM      5  C4  <0> d           2.801  -0.554  -0.023  0.00  0.00     0.137 C 
ATOM      6  C5  <0> d           2.062  -0.059   1.223  0.00  0.00     0.061 C 
ATOM      7  H2  <0> d           2.107   1.029   1.264  0.00  0.00     0.085 H 
ATOM      8  O1  <0> d           0.695  -0.479   1.159  0.00  0.00    -0.378 OA
ATOM      9  H6  <0> d           0.688  -1.588  -1.289  0.00  0.00     0.083 H 
ATOM     10  H7  <0> d           0.228  -0.092  -2.140  0.00  0.00     0.083 H 
ATOM     11  H8  <0> d           2.803  -1.645  -0.036  0.00  0.00     0.083 H 
ATOM     12  H9  <0> d           3.828  -0.189  -0.006  0.00  0.00     0.083 H 
ENDROOT
BRANCH   4  13
ATOM     13  C7  <0> d           2.832  -0.456  -2.443  0.00  0.00     0.128 C 
ATOM     14  H13 <0> d           2.293  -0.090  -3.317  0.00  0.00     0.087 H 
BRANCH  13  15
ATOM     15  C8  <0> d           4.243   0.134  -2.430  0.00  0.00    -0.047 C 
ATOM     16  H14 <0> d           4.782  -0.232  -1.556  0.00  0.00     0.030 H 
ATOM     17  H15 <0> d           4.771  -0.168  -3.334  0.00  0.00     0.030 H 
ATOM     18  H16 <0> d           4.183   1.221  -2.390  0.00  0.00     0.030 H 
ENDBRANCH  13  15
BRANCH  13  19
ATOM     19  C9  <0> d           2.917  -1.982  -2.499  0.00  0.00    -0.047 C 
ATOM     20  H17 <0> d           1.911  -2.402  -2.508  0.00  0.00     0.030 H 
ATOM     21  H18 <0> d           3.445  -2.284  -3.404  0.00  0.00     0.030 H 
ATOM     22  H19 <0> d           3.455  -2.349  -1.625  0.00  0.00     0.030 H 
ENDBRANCH  13  19
ENDBRANCH   4  13
BRANCH   1  23
ATOM     23  C1  <0> d          -0.019   1.526   0.010  0.00  0.00    -0.051 C 
ATOM     24  H3  <0> d           1.004   1.903   0.003  0.00  0.00     0.030 H 
ATOM     25  H4  <0> d          -0.546   1.887  -0.873  0.00  0.00     0.030 H 
ATOM     26  H5  <0> d          -0.529   1.877   0.907  0.00  0.00     0.030 H 
ENDBRANCH   1  23
BRANCH   6  27
ATOM     27  C6  <0> d           2.719  -0.646   2.474  0.00  0.00    -0.051 C 
ATOM     28  H10 <0> d           3.761  -0.329   2.520  0.00  0.00     0.030 H 
ATOM     29  H11 <0> d           2.193  -0.293   3.361  0.00  0.00     0.030 H 
ATOM     30  H12 <0> d           2.672  -1.734   2.433  0.00  0.00     0.030 H 
ENDBRANCH   6  27
TORSDOF 5
