REMARK  1 active torsions:
REMARK  status: ('A' for Active; 'I' for Inactive)
REMARK    1  A    between atoms: C3_3  and  O1_9 
ROOT
ATOM      1  C1  <0> d          -1.219   1.751   0.017  0.00  0.00    -0.043 A 
ATOM      2  C2  <0> d          -0.013   1.076   0.008  0.00  0.00    -0.045 A 
ATOM      3  C3  <0> d           1.178   1.785   0.000  0.00  0.00     0.104 A 
ATOM      4  C4  <0> d           1.157   3.174   0.008  0.00  0.00     0.152 A 
ATOM      5  C5  <0> d          -0.051   3.846   0.023  0.00  0.00    -0.006 A 
ATOM      6  C6  <0> d          -1.239   3.135   0.031  0.00  0.00     0.119 A 
ATOM      7  F1  <0> d          -2.419   3.792   0.045  0.00  0.00    -0.206 F 
ATOM      8  F2  <0> d           2.317   3.868   0.000  0.00  0.00    -0.203 F 
ATOM      9  H1  <0> d          -2.147   1.198   0.018  0.00  0.00     0.088 H 
ATOM     10  H2  <0> d           0.002  -0.004   0.002  0.00  0.00     0.088 H 
ATOM     11  H3  <0> d          -0.069   4.926   0.029  0.00  0.00     0.093 H 
ENDROOT
BRANCH   3  12
ATOM     12  O1  <0> d           2.365   1.122  -0.015  0.00  0.00    -0.358 OA
ATOM     13  H4  <0> d           2.700   0.935  -0.903  0.00  0.00     0.217 HD
ENDBRANCH   3  12
TORSDOF 1
