REMARK  2 active torsions:
REMARK  status: ('A' for Active; 'I' for Inactive)
REMARK    1  A    between atoms: C2_2  and  N2_11 
REMARK    2  A    between atoms: C3_3  and  N1_10 
ROOT
ATOM      1  C1  <0> d          -0.013   1.076   0.008  0.00  0.00    -0.020 A 
ATOM      2  C2  <0> d           1.179   1.786   0.000  0.00  0.00     0.055 A 
ATOM      3  C3  <0> d           1.159   3.179   0.008  0.00  0.00     0.055 A 
ATOM      4  C4  <0> d          -0.052   3.855   0.024  0.00  0.00    -0.020 A 
ATOM      5  C5  <0> d          -1.240   3.145   0.031  0.00  0.00     0.107 A 
ATOM      6  C6  <0> d          -1.220   1.752   0.017  0.00  0.00     0.107 A 
ATOM      7  O1  <0> d          -2.516   1.306   0.021  0.00  0.00    -0.323 OA
ATOM      8  C7  <0> d          -3.271   2.422  -0.506  0.00  0.00     0.115 C 
ATOM      9  O2  <0> d          -2.547   3.554   0.046  0.00  0.00    -0.323 OA
ATOM     10  H1  <0> d           0.002  -0.004   0.002  0.00  0.00     0.091 H 
ATOM     11  H2  <0> d          -0.068   4.935   0.029  0.00  0.00     0.091 H 
ATOM     12  H3  <0> d          -3.248   2.429  -1.596  0.00  0.00     0.118 H 
ATOM     13  H4  <0> d          -4.297   2.406  -0.140  0.00  0.00     0.118 H 
ENDROOT
BRANCH   2  14
ATOM     14  N2  <0> d           2.404   1.101  -0.016  0.00  0.00    -0.397 N 
ATOM     15  H7  <0> d           2.417   0.132  -0.021  0.00  0.00     0.156 HD
ATOM     16  H8  <0> d           3.237   1.598  -0.021  0.00  0.00     0.156 HD
ENDBRANCH   2  14
BRANCH   3  17
ATOM     17  N1  <0> d           2.364   3.898   0.000  0.00  0.00    -0.397 N 
ATOM     18  H5  <0> d           3.211   3.425  -0.011  0.00  0.00     0.156 HD
ATOM     19  H6  <0> d           2.350   4.868   0.006  0.00  0.00     0.156 HD
ENDBRANCH   3  17
TORSDOF 2
