REMARK  3 active torsions:
REMARK  status: ('A' for Active; 'I' for Inactive)
REMARK    1  A    between atoms: C1_1  and  C2_2 
REMARK    2  A    between atoms: C2_2  and  O2_4 
REMARK    3  A    between atoms: O2_4  and  C3_5 
ROOT
ATOM      1  C3  <0> d          -2.393   1.052   0.019  0.00  0.00     0.122 A 
ATOM      2  H1  <0> d          -2.283   0.123  -0.541  0.00  0.00     0.119 H 
ATOM      3  C4  <0> d          -3.664   1.840  -0.335  0.00  0.00     0.050 A 
ATOM      4  C5  <0> d          -4.122   1.563   1.083  0.00  0.00     0.223 A 
ATOM      5  O3  <0> d          -5.114   1.847   1.721  0.00  0.00    -0.273 OA
ATOM      6  N1  <0> d          -2.985   0.873   1.357  0.00  0.00    -0.334 N 
ATOM      7  H5  <0> d          -3.482   2.896  -0.538  0.00  0.00     0.053 H 
ATOM      8  H6  <0> d          -4.279   1.360  -1.096  0.00  0.00     0.053 H 
ATOM      9  H7  <0> d          -2.671   0.420   2.155  0.00  0.00     0.165 HD
ENDROOT
BRANCH   1  10
ATOM     10  O2  <0> d          -1.186   1.859   0.018  0.00  0.00    -0.295 OA
BRANCH  10  11
ATOM     11  C2  <0> d          -0.014   1.204   0.009  0.00  0.00     0.256 C 
ATOM     12  O1  <0> d           0.002  -0.004   0.002  0.00  0.00    -0.266 OA
BRANCH  11  13
ATOM     13  C1  <0> d           1.280   1.975   0.000  0.00  0.00     0.004 C 
ATOM     14  H2  <0> d           2.118   1.278  -0.011  0.00  0.00     0.041 H 
ATOM     15  H3  <0> d           1.321   2.607  -0.887  0.00  0.00     0.041 H 
ATOM     16  H4  <0> d           1.338   2.598   0.893  0.00  0.00     0.041 H 
ENDBRANCH  11  13
ENDBRANCH  10  11
ENDBRANCH   1  10
TORSDOF 3
