REMARK  1 active torsions:
REMARK  status: ('A' for Active; 'I' for Inactive)
REMARK    1  A    between atoms: C8_12  and  C9_13 
ROOT
ATOM      1  C1  <0> d           0.219   3.481   0.877  0.00  0.00    -0.052 C 
ATOM      2  C2  <0> d           0.754   2.203   0.152  0.00  0.00    -0.033 C 
ATOM      3  H1  <0> d           1.627   1.693   0.588  0.00  0.00     0.046 H 
ATOM      4  C3  <0> d          -0.587   1.439   0.069  0.00  0.00    -0.102 C 
ATOM      5  C4  <0> d          -1.545   2.324  -0.139  0.00  0.00    -0.102 C 
ATOM      6  C5  <0> d          -0.893   3.724  -0.196  0.00  0.00    -0.033 C 
ATOM      7  H2  <0> d          -1.534   4.611  -0.077  0.00  0.00     0.046 H 
ATOM      8  C6  <0> d          -0.144   3.695  -1.551  0.00  0.00    -0.029 A 
ATOM      9  H3  <0> d          -0.984   3.990  -2.196  0.00  0.00     0.043 H 
ATOM     10  C7  <0> d           0.985   2.650  -1.312  0.00  0.00    -0.029 A 
ATOM     11  H4  <0> d           1.460   1.728  -1.680  0.00  0.00     0.043 H 
ATOM     12  C8  <0> d           1.309   4.063  -1.735  0.00  0.00     0.039 A 
ATOM     13  H5  <0> d           0.890   4.352   0.913  0.00  0.00     0.035 H 
ATOM     14  H6  <0> d          -0.248   3.337   1.863  0.00  0.00     0.035 H 
ATOM     15  H7  <0> d          -0.834   0.370   0.150  0.00  0.00     0.077 H 
ATOM     16  H8  <0> d          -2.589   1.992  -0.238  0.00  0.00     0.077 H 
ATOM     17  H9  <0> d           1.895   4.510  -2.552  0.00  0.00     0.058 H 
ENDROOT
BRANCH  12  18
ATOM     18  C9  <0> d           2.024   5.035  -0.861  0.00  0.00     0.177 C 
ATOM     19  O1  <0> d           1.448   6.014  -0.449  0.00  0.00    -0.648 OA
ATOM     20  O2  <0> d           3.307   4.822  -0.530  0.00  0.00    -0.648 OA
ENDBRANCH  12  18
TORSDOF 1
