REMARK  1 active torsions:
REMARK  status: ('A' for Active; 'I' for Inactive)
REMARK    1  A    between atoms: C3_3  and  C5_6 
ROOT
ATOM      1  C1  <0> d           3.211   5.035  -0.001  0.00  0.00    -0.075 A 
ATOM      2  C2  <0> d           3.025   3.672  -0.002  0.00  0.00    -0.062 A 
ATOM      3  C3  <0> d           1.743   3.182   0.002  0.00  0.00     0.050 A 
ATOM      4  S1  <0> d           0.776   4.683   0.019  0.00  0.00    -0.098 SA
ATOM      5  C4  <0> d           2.125   5.852   0.013  0.00  0.00    -0.044 A 
ATOM      6  H2  <0> d           4.207   5.451  -0.008  0.00  0.00     0.084 H 
ATOM      7  H3  <0> d           3.871   3.001  -0.009  0.00  0.00     0.085 H 
ATOM      8  H4  <0> d           2.087   6.932   0.020  0.00  0.00     0.095 H 
ENDROOT
BRANCH   3   9
ATOM      9  C5  <0> d           1.285   1.783  -0.001  0.00  0.00     0.144 A 
ATOM     10  N2  <0> d           2.059   0.718  -0.014  0.00  0.00    -0.241 NA
ATOM     11  C7  <0> d           1.296  -0.382  -0.012  0.00  0.00     0.019 A 
ATOM     12  C6  <0> d           0.002  -0.004   0.002  0.00  0.00    -0.004 A 
ATOM     13  H6  <0> d           1.656  -1.400  -0.022  0.00  0.00     0.117 H 
ATOM     14  N1  <0> d          -0.017   1.367   0.010  0.00  0.00    -0.348 N 
ATOM     15  H5  <0> d          -0.858  -0.658   0.007  0.00  0.00     0.113 H 
ATOM     16  H1  <0> d          -0.828   1.951   0.021  0.00  0.00     0.167 HD
ENDBRANCH   3   9
TORSDOF 1
