REMARK  1 active torsions:
REMARK  status: ('A' for Active; 'I' for Inactive)
REMARK    1  A    between atoms: C1_1  and  C2_2 
ROOT
ATOM      1  C2  <0> d           2.268  -1.979   2.115  0.00  0.00     0.050 A 
ATOM      2  C3  <0> d           1.191  -1.996   1.307  0.00  0.00    -0.039 A 
ATOM      3  C4  <0> d           1.004  -0.618   0.881  0.00  0.00     0.042 A 
ATOM      4  C5  <0> d           2.002   0.114   1.480  0.00  0.00     0.067 A 
ATOM      5  O1  <0> d           2.736  -0.720   2.208  0.00  0.00    -0.319 OA
ATOM      6  C6  <0> d           2.156   1.601   1.281  0.00  0.00    -0.019 C 
ATOM      7  C7  <0> d           1.430   2.018  -0.001  0.00  0.00    -0.053 C 
ATOM      8  C8  <0> d          -0.019   1.518   0.010  0.00  0.00    -0.005 C 
ATOM      9  C9  <0> d           0.002  -0.004   0.002  0.00  0.00     0.162 C 
ATOM     10  O2  <0> d          -0.755  -0.661  -0.681  0.00  0.00    -0.292 OA
ATOM     11  H4  <0> d           0.593  -2.853   1.033  0.00  0.00     0.088 H 
ATOM     12  H5  <0> d           1.724   2.128   2.132  0.00  0.00     0.043 H 
ATOM     13  H6  <0> d           3.214   1.849   1.198  0.00  0.00     0.043 H 
ATOM     14  H7  <0> d           1.949   1.596  -0.861  0.00  0.00     0.034 H 
ATOM     15  H8  <0> d           1.433   3.105  -0.078  0.00  0.00     0.034 H 
ATOM     16  H9  <0> d          -0.496   1.861  -0.798  0.00  0.00     0.044 H 
ATOM     17  H10 <0> d          -0.523   1.874   0.909  0.00  0.00     0.044 H 
ENDROOT
BRANCH   1  18
ATOM     18  C1  <0> d           2.858  -3.181   2.807  0.00  0.00    -0.031 C 
ATOM     19  H1  <0> d           3.611  -3.637   2.164  0.00  0.00     0.036 H 
ATOM     20  H2  <0> d           3.321  -2.870   3.744  0.00  0.00     0.036 H 
ATOM     21  H3  <0> d           2.070  -3.905   3.014  0.00  0.00     0.036 H 
ENDBRANCH   1  18
TORSDOF 1
