REMARK  4 active torsions:
REMARK  status: ('A' for Active; 'I' for Inactive)
REMARK    1  A    between atoms: C1_1  and  C2_2 
REMARK    2  A    between atoms: C2_2  and  C3_4 
REMARK    3  A    between atoms: C2_2  and  O2_12 
REMARK    4  A    between atoms: C7_9  and  O1_11 
ROOT
ATOM      1  C3  <0> d           1.159   3.099  -0.010  0.00  0.00    -0.005 C 
ATOM      2  H2  <0> d           1.970   3.552   0.560  0.00  0.00     0.047 H 
ATOM      3  C4  <0> d           1.268   3.482  -1.507  0.00  0.00    -0.057 C 
ATOM      4  C5  <0> d           2.337   2.493  -2.035  0.00  0.00    -0.062 C 
ATOM      5  C6  <0> d           2.036   1.175  -1.289  0.00  0.00    -0.041 C 
ATOM      6  C7  <0> d           1.286   1.562  -0.002  0.00  0.00     0.041 C 
ATOM      7  H3  <0> d           1.853   1.239   0.872  0.00  0.00     0.083 H 
ATOM      8  H7  <0> d           0.317   3.329  -2.015  0.00  0.00     0.033 H 
ATOM      9  H8  <0> d           1.607   4.512  -1.618  0.00  0.00     0.033 H 
ATOM     10  H9  <0> d           2.231   2.355  -3.111  0.00  0.00     0.033 H 
ATOM     11  H10 <0> d           3.339   2.849  -1.794  0.00  0.00     0.033 H 
ATOM     12  H11 <0> d           2.967   0.665  -1.040  0.00  0.00     0.036 H 
ATOM     13  H12 <0> d           1.411   0.531  -1.906  0.00  0.00     0.036 H 
ENDROOT
BRANCH   1  14
ATOM     14  C2  <0> d          -0.198   3.527   0.554  0.00  0.00     0.038 C 
ATOM     15  H1  <0> d          -0.295   3.169   1.579  0.00  0.00     0.083 H 
BRANCH  14  16
ATOM     16  C1  <0> d          -0.300   5.053   0.535  0.00  0.00    -0.052 C 
ATOM     17  H4  <0> d          -0.203   5.411  -0.490  0.00  0.00     0.030 H 
ATOM     18  H5  <0> d          -1.266   5.358   0.937  0.00  0.00     0.030 H 
ATOM     19  H6  <0> d           0.497   5.478   1.145  0.00  0.00     0.030 H 
ENDBRANCH  14  16
BRANCH  14  20
ATOM     20  O2  <0> d          -1.243   2.970  -0.246  0.00  0.00    -0.395 OA
ATOM     21  H14 <0> d          -1.219   3.246  -1.172  0.00  0.00     0.210 HD
ENDBRANCH  14  20
ENDBRANCH   1  14
BRANCH   6  22
ATOM     22  O1  <0> d          -0.011   0.963   0.007  0.00  0.00    -0.395 OA
ATOM     23  H13 <0> d           0.002  -0.004   0.002  0.00  0.00     0.210 HD
ENDBRANCH   6  22
TORSDOF 4
