REMARK  8 active torsions:
REMARK  status: ('A' for Active; 'I' for Inactive)
REMARK    1  A    between atoms: C1_1  and  C2_2 
REMARK    2  A    between atoms: C2_2  and  C3_3 
REMARK    3  A    between atoms: C3_3  and  C4_4 
REMARK    4  A    between atoms: C4_4  and  C5_5 
REMARK    5  A    between atoms: C5_5  and  C6_6 
REMARK    6  A    between atoms: C6_6  and  C7_8 
REMARK    7  A    between atoms: C6_6  and  O1_11 
REMARK    8  A    between atoms: C7_8  and  C8_9 
ROOT
ATOM      1  C5  <0> d          -3.564   1.998  -1.081  0.00  0.00    -0.041 C 
ATOM      2  H11 <0> d          -4.010   1.785  -0.110  0.00  0.00     0.036 H 
ATOM      3  H12 <0> d          -3.463   3.076  -1.206  0.00  0.00     0.036 H 
ENDROOT
BRANCH   1   4
ATOM      4  C4  <0> d          -4.458   1.437  -2.188  0.00  0.00    -0.063 C 
ATOM      5  H9  <0> d          -4.012   1.650  -3.159  0.00  0.00     0.033 H 
ATOM      6  H10 <0> d          -4.559   0.359  -2.063  0.00  0.00     0.033 H 
BRANCH   4   7
ATOM      7  C3  <0> d          -5.840   2.090  -2.107  0.00  0.00    -0.065 C 
ATOM      8  H7  <0> d          -6.286   1.877  -1.136  0.00  0.00     0.033 H 
ATOM      9  H8  <0> d          -5.739   3.168  -2.233  0.00  0.00     0.033 H 
BRANCH   7  10
ATOM     10  C2  <0> d          -6.734   1.530  -3.215  0.00  0.00    -0.069 C 
ATOM     11  H5  <0> d          -6.288   1.743  -4.186  0.00  0.00     0.032 H 
ATOM     12  H6  <0> d          -6.835   0.451  -3.090  0.00  0.00     0.032 H 
BRANCH  10  13
ATOM     13  C1  <0> d          -8.116   2.183  -3.134  0.00  0.00    -0.077 C 
ATOM     14  H2  <0> d          -8.562   1.969  -2.163  0.00  0.00     0.027 H 
ATOM     15  H3  <0> d          -8.016   3.261  -3.259  0.00  0.00     0.027 H 
ATOM     16  H4  <0> d          -8.753   1.783  -3.922  0.00  0.00     0.027 H 
ENDBRANCH  10  13
ENDBRANCH   7  10
ENDBRANCH   4   7
ENDBRANCH   1   4
BRANCH   1  17
ATOM     17  C6  <0> d          -2.182   1.345  -1.162  0.00  0.00     0.038 C 
ATOM     18  H1  <0> d          -2.291   0.261  -1.126  0.00  0.00     0.083 H 
BRANCH  17  19
ATOM     19  C7  <0> d          -1.328   1.812   0.018  0.00  0.00    -0.027 C 
ATOM     20  H13 <0> d          -1.853   1.605   0.951  0.00  0.00     0.042 H 
ATOM     21  H14 <0> d          -1.145   2.883  -0.066  0.00  0.00     0.042 H 
BRANCH  19  22
ATOM     22  C8  <0> d          -0.013   1.076   0.008  0.00  0.00    -0.110 C 
ATOM     23  C9  <0> d           1.113   1.746   0.001  0.00  0.00    -0.125 C 
ATOM     24  H16 <0> d           2.055   1.219  -0.011  0.00  0.00     0.066 H 
ATOM     25  H17 <0> d           1.098   2.826   0.007  0.00  0.00     0.066 H 
ATOM     26  H15 <0> d           0.002  -0.004   0.002  0.00  0.00     0.075 H 
ENDBRANCH  19  22
ENDBRANCH  17  19
BRANCH  17  27
ATOM     27  O1  <0> d          -1.549   1.720  -2.387  0.00  0.00    -0.395 OA
ATOM     28  H18 <0> d          -1.420   2.673  -2.487  0.00  0.00     0.210 HD
ENDBRANCH  17  27
ENDBRANCH   1  17
TORSDOF 8
