REMARK  0 active torsions:
REMARK  status: ('A' for Active; 'I' for Inactive)
ROOT
ATOM      1  C1  <0> d           0.002  -0.004   0.002  0.00  0.00     0.011 A 
ATOM      2  C2  <0> d          -0.016   1.343   0.009  0.00  0.00     0.110 A 
ATOM      3  C3  <0> d           1.267   2.079   0.001  0.00  0.00     0.305 A 
ATOM      4  O1  <0> d           1.272   3.294   0.008  0.00  0.00    -0.263 OA
ATOM      5  N1  <0> d           2.431   1.401  -0.014  0.00  0.00    -0.128 NA
ATOM      6  N2  <0> d           2.447   0.003  -0.021  0.00  0.00    -0.240 N 
ATOM      7  H1  <0> d           3.406  -0.536  -0.033  0.00  0.00     0.192 HD
ATOM      8  C4  <0> d           1.301  -0.704  -0.014  0.00  0.00     0.263 A 
ATOM      9  O2  <0> d           1.337  -1.919  -0.021  0.00  0.00    -0.267 OA
ATOM     10 Cl1  <0> d          -1.524   2.203   0.021  0.00  0.00    -0.078 Cl
ATOM     11  H2  <0> d          -0.921  -0.564   0.008  0.00  0.00     0.095 H 
ENDROOT
TORSDOF 0
