REMARK  4 active torsions:
REMARK  status: ('A' for Active; 'I' for Inactive)
REMARK    1  A    between atoms: C1_1  and  C2_2 
REMARK    2  A    between atoms: C2_2  and  C3_4 
REMARK    3  A    between atoms: C2_2  and  C4_6 
REMARK    4  A    between atoms: C3_4  and  O1_5 
ROOT
ATOM      1  C2  <0> d           0.002  -0.004   0.002  0.00  0.00     0.005 C 
ATOM      2  H1  <0> d           0.512  -0.356  -0.895  0.00  0.00     0.052 H 
ENDROOT
BRANCH   1   3
ATOM      3  C1  <0> d          -0.019   1.526   0.010  0.00  0.00    -0.066 C 
ATOM      4  H2  <0> d           1.004   1.903   0.003  0.00  0.00     0.028 H 
ATOM      5  H3  <0> d          -0.546   1.887  -0.873  0.00  0.00     0.028 H 
ATOM      6  H4  <0> d          -0.529   1.877   0.907  0.00  0.00     0.028 H 
ENDBRANCH   1   3
BRANCH   1   7
ATOM      7  C3  <0> d          -1.433  -0.534   0.013  0.00  0.00     0.025 C 
ATOM      8  H5  <0> d          -1.419  -1.620   0.097  0.00  0.00     0.075 H 
ATOM      9  H6  <0> d          -1.970  -0.111   0.862  0.00  0.00     0.075 H 
BRANCH   7  10
ATOM     10  O1  <0> d          -2.089  -0.158  -1.200  0.00  0.00    -0.400 OA
ATOM     11  H7  <0> d          -3.005  -0.461  -1.262  0.00  0.00     0.209 HD
ENDBRANCH   7  10
ENDBRANCH   1   7
BRANCH   1  12
ATOM     12  C4  <0> d           0.731  -0.503   1.223  0.00  0.00     0.040 A 
ATOM     13  N1  <0> d           1.465  -1.595   1.142  0.00  0.00    -0.265 NA
ATOM     14  C8  <0> d           2.125  -2.066   2.183  0.00  0.00     0.003 A 
ATOM     15  C7  <0> d           2.059  -1.430   3.408  0.00  0.00    -0.066 A 
ATOM     16  H11 <0> d           2.720  -2.961   2.077  0.00  0.00     0.114 H 
ATOM     17  C6  <0> d           1.292  -0.282   3.533  0.00  0.00    -0.080 A 
ATOM     18  H10 <0> d           2.598  -1.823   4.258  0.00  0.00     0.085 H 
ATOM     19  C5  <0> d           0.618   0.186   2.416  0.00  0.00    -0.059 A 
ATOM     20  H9  <0> d           1.222   0.236   4.478  0.00  0.00     0.083 H 
ATOM     21  H8  <0> d           0.011   1.078   2.477  0.00  0.00     0.086 H 
ENDBRANCH   1  12
TORSDOF 4
