REMARK  8 active torsions:
REMARK  status: ('A' for Active; 'I' for Inactive)
REMARK    1  A    between atoms: C1_1  and  C2_2 
REMARK    2  A    between atoms: C2_2  and  C3_3 
REMARK    3  A    between atoms: C3_3  and  C4_4 
REMARK    4  A    between atoms: C4_4  and  C5_5 
REMARK    5  A    between atoms: C5_5  and  C6_6 
REMARK    6  A    between atoms: C7_7  and  C8_8 
REMARK    7  A    between atoms: C9_9  and  C10_10 
REMARK    8  A    between atoms: C10_10  and  O1_11 
ROOT
ATOM      1  C5  <0> d           3.196   5.333   2.811  0.00  0.00    -0.050 C 
ATOM      2  H10 <0> d           4.107   5.853   2.516  0.00  0.00     0.038 H 
ATOM      3  H11 <0> d           2.382   5.620   2.145  0.00  0.00     0.038 H 
ENDROOT
BRANCH   1   4
ATOM      4  C4  <0> d           2.835   5.710   4.249  0.00  0.00    -0.062 C 
ATOM      5  H8  <0> d           1.923   5.189   4.543  0.00  0.00     0.033 H 
ATOM      6  H9  <0> d           3.648   5.422   4.915  0.00  0.00     0.033 H 
BRANCH   4   7
ATOM      7  C3  <0> d           2.611   7.221   4.339  0.00  0.00    -0.065 C 
ATOM      8  H6  <0> d           3.523   7.741   4.045  0.00  0.00     0.033 H 
ATOM      9  H7  <0> d           1.798   7.508   3.673  0.00  0.00     0.033 H 
BRANCH   7  10
ATOM     10  C2  <0> d           2.250   7.598   5.777  0.00  0.00    -0.069 C 
ATOM     11  H4  <0> d           1.339   7.077   6.072  0.00  0.00     0.032 H 
ATOM     12  H5  <0> d           3.064   7.311   6.443  0.00  0.00     0.032 H 
BRANCH  10  13
ATOM     13  C1  <0> d           2.027   9.109   5.868  0.00  0.00    -0.077 C 
ATOM     14  H1  <0> d           2.938   9.629   5.573  0.00  0.00     0.027 H 
ATOM     15  H2  <0> d           1.213   9.396   5.202  0.00  0.00     0.027 H 
ATOM     16  H3  <0> d           1.770   9.377   6.892  0.00  0.00     0.027 H 
ENDBRANCH  10  13
ENDBRANCH   7  10
ENDBRANCH   4   7
ENDBRANCH   1   4
BRANCH   1  17
ATOM     17  C6  <0> d           3.416   3.845   2.722  0.00  0.00    -0.103 C 
ATOM     18  C7  <0> d           2.700   3.117   1.871  0.00  0.00    -0.087 C 
ATOM     19  H13 <0> d           2.915   2.066   1.746  0.00  0.00     0.083 H 
ATOM     20  H12 <0> d           4.155   3.369   3.350  0.00  0.00     0.076 H 
BRANCH  18  21
ATOM     21  C8  <0> d           1.615   3.742   1.100  0.00  0.00    -0.085 C 
ATOM     22  C9  <0> d           0.878   3.008   0.274  0.00  0.00    -0.081 C 
ATOM     23  H15 <0> d           0.149   3.482  -0.367  0.00  0.00     0.080 H 
ATOM     24  H14 <0> d           1.417   4.799   1.205  0.00  0.00     0.083 H 
BRANCH  22  25
ATOM     25  C10 <0> d           1.059   1.512   0.230  0.00  0.00     0.032 C 
ATOM     26  H16 <0> d           1.610   1.187   1.113  0.00  0.00     0.080 H 
ATOM     27  H17 <0> d           1.615   1.239  -0.666  0.00  0.00     0.080 H 
BRANCH  25  28
ATOM     28  O1  <0> d          -0.222   0.878   0.208  0.00  0.00    -0.397 OA
ATOM     29  H18 <0> d          -0.182  -0.088   0.180  0.00  0.00     0.209 HD
ENDBRANCH  25  28
ENDBRANCH  22  25
ENDBRANCH  18  21
ENDBRANCH   1  17
TORSDOF 8
