REMARK  1 active torsions:
REMARK  status: ('A' for Active; 'I' for Inactive)
REMARK    1  A    between atoms: C6_6  and  N1_7 
ROOT
ATOM      1  C1  <0> d           1.206  -0.682  -0.016  0.00  0.00    -0.055 A 
ATOM      2  C2  <0> d           0.002  -0.004   0.002  0.00  0.00    -0.046 A 
ATOM      3  C3  <0> d          -0.017   1.382   0.010  0.00  0.00     0.102 A 
ATOM      4  C4  <0> d           1.178   2.092   0.002  0.00  0.00     0.104 A 
ATOM      5  C5  <0> d           2.386   1.412  -0.017  0.00  0.00    -0.023 A 
ATOM      6  C6  <0> d           2.401   0.024  -0.027  0.00  0.00     0.028 A 
ATOM      7  O1  <0> d           1.180   3.454   0.018  0.00  0.00    -0.346 OA
ATOM      8  C7  <0> d          -0.045   4.103  -0.340  0.00  0.00     0.046 C 
ATOM      9  C8  <0> d          -1.192   3.411   0.408  0.00  0.00     0.046 C 
ATOM     10  O2  <0> d          -1.214   2.033   0.019  0.00  0.00    -0.346 OA
ATOM     11  H1  <0> d           1.217  -1.762  -0.023  0.00  0.00     0.087 H 
ATOM     12  H2  <0> d          -0.927  -0.555   0.010  0.00  0.00     0.087 H 
ATOM     13  H3  <0> d           3.315   1.962  -0.026  0.00  0.00     0.091 H 
ATOM     14  H6  <0> d          -0.001   5.154  -0.054  0.00  0.00     0.078 H 
ATOM     15  H7  <0> d          -0.204   4.021  -1.415  0.00  0.00     0.078 H 
ATOM     16  H8  <0> d          -1.030   3.489   1.483  0.00  0.00     0.078 H 
ATOM     17  H9  <0> d          -2.140   3.882   0.144  0.00  0.00     0.078 H 
ENDROOT
BRANCH   6  18
ATOM     18  N1  <0> d           3.620  -0.662  -0.047  0.00  0.00    -0.399 N 
ATOM     19  H4  <0> d           3.630  -1.633  -0.054  0.00  0.00     0.156 HD
ATOM     20  H5  <0> d           4.455  -0.169  -0.054  0.00  0.00     0.156 HD
ENDBRANCH   6  18
TORSDOF 1
