REMARK  4 active torsions:
REMARK  status: ('A' for Active; 'I' for Inactive)
REMARK    1  A    between atoms: C1_1  and  N1_2 
REMARK    2  A    between atoms: C2_4  and  C3_7 
REMARK    3  A    between atoms: C3_7  and  C4_8 
REMARK    4  A    between atoms: C4_8  and  O1_9 
ROOT
ATOM      1  N1  <0> d           1.331   0.945   4.109  0.00  0.00    -0.173 N 
ATOM      2  N2  <0> d           0.974   1.689   3.119  0.00  0.00    -0.137 NA
ATOM      3  C2  <0> d           0.000   1.080   2.488  0.00  0.00     0.173 A 
ATOM      4  N3  <0> d          -0.226  -0.063   3.135  0.00  0.00    -0.113 NA
ATOM      5  N4  <0> d           0.607  -0.120   4.119  0.00  0.00    -0.047 NA
ENDROOT
BRANCH   3   6
ATOM      6  C3  <0> d          -0.729   1.579   1.267  0.00  0.00     0.015 C 
ATOM      7  H4  <0> d          -0.744   2.669   1.273  0.00  0.00     0.048 H 
ATOM      8  H5  <0> d          -1.751   1.202   1.275  0.00  0.00     0.048 H 
BRANCH   6   9
ATOM      9  C4  <0> d          -0.013   1.086   0.008  0.00  0.00     0.023 C 
ATOM     10  H6  <0> d           0.002  -0.004   0.002  0.00  0.00     0.074 H 
ATOM     11  H7  <0> d           1.010   1.463   0.000  0.00  0.00     0.074 H 
BRANCH   9  12
ATOM     12  O1  <0> d          -0.704   1.559  -1.150  0.00  0.00    -0.400 OA
ATOM     13  H8  <0> d          -0.304   1.284  -1.986  0.00  0.00     0.209 HD
ENDBRANCH   9  12
ENDBRANCH   6   9
ENDBRANCH   3   6
BRANCH   1  14
ATOM     14  C1  <0> d           2.391   1.261   5.069  0.00  0.00     0.021 C 
ATOM     15  H1  <0> d           1.968   1.811   5.910  0.00  0.00     0.062 H 
ATOM     16  H2  <0> d           2.842   0.336   5.430  0.00  0.00     0.062 H 
ATOM     17  H3  <0> d           3.153   1.870   4.582  0.00  0.00     0.062 H 
ENDBRANCH   1  14
TORSDOF 4
