REMARK  3 active torsions:
REMARK  status: ('A' for Active; 'I' for Inactive)
REMARK    1  A    between atoms: C4_6  and  C5_7 
REMARK    2  A    between atoms: C5_7  and  C6_8 
REMARK    3  A    between atoms: C6_8  and  C7_9 
ROOT
ATOM      1  C1  <0> d           1.046   1.740   3.162  0.00  0.00    -0.061 A 
ATOM      2  C2  <0> d           1.416   0.958   4.197  0.00  0.00    -0.023 A 
ATOM      3  N1  <0> d           0.636  -0.160   4.186  0.00  0.00    -0.375 N 
ATOM      4  H1  <0> d           0.689  -0.892   4.820  0.00  0.00     0.164 HD
ATOM      5  C3  <0> d          -0.233  -0.078   3.139  0.00  0.00    -0.017 A 
ATOM      6  C4  <0> d           0.000   1.080   2.488  0.00  0.00    -0.041 A 
ATOM      7  H2  <0> d           1.474   2.696   2.899  0.00  0.00     0.086 H 
ATOM      8  H3  <0> d           2.195   1.179   4.911  0.00  0.00     0.111 H 
ATOM      9  H4  <0> d          -0.979  -0.813   2.875  0.00  0.00     0.112 H 
ENDROOT
BRANCH   6  10
ATOM     10  C5  <0> d          -0.729   1.579   1.267  0.00  0.00    -0.031 C 
ATOM     11  H5  <0> d          -0.744   2.669   1.273  0.00  0.00     0.041 H 
ATOM     12  H6  <0> d          -1.751   1.202   1.275  0.00  0.00     0.041 H 
BRANCH  10  13
ATOM     13  C6  <0> d          -0.013   1.086   0.008  0.00  0.00     0.019 C 
ATOM     14  H7  <0> d           0.002  -0.004   0.002  0.00  0.00     0.049 H 
ATOM     15  H8  <0> d           1.010   1.463   0.000  0.00  0.00     0.049 H 
BRANCH  13  16
ATOM     16  C7  <0> d          -0.742   1.585  -1.213  0.00  0.00     0.172 C 
ATOM     17  O1  <0> d          -1.732   2.266  -1.089  0.00  0.00    -0.648 OA
ATOM     18  O2  <0> d          -0.290   1.274  -2.438  0.00  0.00    -0.648 OA
ENDBRANCH  13  16
ENDBRANCH  10  13
ENDBRANCH   6  10
TORSDOF 3
