REMARK  8 active torsions:
REMARK  status: ('A' for Active; 'I' for Inactive)
REMARK    1  A    between atoms: C1_1  and  C2_2 
REMARK    2  A    between atoms: C2_2  and  C3_3 
REMARK    3  A    between atoms: C3_3  and  N1_4 
REMARK    4  A    between atoms: N1_4  and  C4_5 
REMARK    5  A    between atoms: N1_4  and  C7_8 
REMARK    6  A    between atoms: C4_5  and  C5_6 
REMARK    7  A    between atoms: C5_6  and  C6_7 
REMARK    8  A    between atoms: C7_8  and  C8_9 
ROOT
ATOM      1  C8  <0> d           0.182  -0.008   0.711  0.00  0.00    -0.087 C 
ATOM      2  C9  <0> d           0.283  -1.161   0.908  0.00  0.00    -0.152 C 
ATOM      3  H17 <0> d           0.378  -2.242   1.092  0.00  0.00     0.166 H 
ENDROOT
BRANCH   1   4
ATOM      4  C7  <0> d           0.055   1.437   0.465  0.00  0.00     0.166 C 
ATOM      5  H15 <0> d          -0.318   1.933   1.373  0.00  0.00     0.099 H 
ATOM      6  H16 <0> d          -0.651   1.608  -0.362  0.00  0.00     0.099 H 
BRANCH   4   7
ATOM      7  N1  <0> d           1.368   1.991   0.110  0.00  0.00     0.099 N 
BRANCH   7   8
ATOM      8  C3  <0> d           1.834   1.456  -1.177  0.00  0.00     0.114 C 
ATOM      9  H6  <0> d           1.886   0.359  -1.121  0.00  0.00     0.079 H 
ATOM     10  H7  <0> d           2.833   1.860  -1.401  0.00  0.00     0.079 H 
BRANCH   8  11
ATOM     11  C2  <0> d           0.859   1.865  -2.282  0.00  0.00    -0.043 C 
ATOM     12  H4  <0> d           0.833   2.962  -2.361  0.00  0.00     0.035 H 
ATOM     13  H5  <0> d          -0.147   1.492  -2.040  0.00  0.00     0.035 H 
BRANCH  11  14
ATOM     14  C1  <0> d           1.318   1.269  -3.614  0.00  0.00    -0.075 C 
ATOM     15  H1  <0> d           0.617   1.563  -4.409  0.00  0.00     0.027 H 
ATOM     16  H2  <0> d           1.344   0.172  -3.535  0.00  0.00     0.027 H 
ATOM     17  H3  <0> d           2.324   1.643  -3.856  0.00  0.00     0.027 H 
ENDBRANCH  11  14
ENDBRANCH   8  11
ENDBRANCH   7   8
BRANCH   7  18
ATOM     18  C4  <0> d           1.333   3.459   0.088  0.00  0.00     0.114 C 
ATOM     19  H8  <0> d           0.821   3.800  -0.824  0.00  0.00     0.079 H 
ATOM     20  H9  <0> d           0.790   3.826   0.972  0.00  0.00     0.079 H 
BRANCH  18  21
ATOM     21  C5  <0> d           2.762   4.004   0.104  0.00  0.00    -0.043 C 
ATOM     22  H10 <0> d           3.275   3.661   1.015  0.00  0.00     0.035 H 
ATOM     23  H11 <0> d           3.304   3.640  -0.781  0.00  0.00     0.035 H 
BRANCH  21  24
ATOM     24  C6  <0> d           2.725   5.534   0.086  0.00  0.00    -0.075 C 
ATOM     25  H12 <0> d           3.752   5.926   0.098  0.00  0.00     0.027 H 
ATOM     26  H13 <0> d           2.183   5.898   0.971  0.00  0.00     0.027 H 
ATOM     27  H14 <0> d           2.212   5.877  -0.825  0.00  0.00     0.027 H 
ENDBRANCH  21  24
ENDBRANCH  18  21
ENDBRANCH   7  18
ENDBRANCH   4   7
ENDBRANCH   1   4
TORSDOF 8
