REMARK  5 active torsions:
REMARK  status: ('A' for Active; 'I' for Inactive)
REMARK    1  A    between atoms: C1_1  and  C2_2 
REMARK    2  A    between atoms: C1_1  and  O2_8 
REMARK    3  A    between atoms: C3_3  and  C4_4 
REMARK    4  A    between atoms: C5_5  and  C6_6 
REMARK    5  A    between atoms: C6_6  and  O1_7 
ROOT
ATOM      1  C2  <0> d           0.053  -3.729  -0.018  0.00  0.00    -0.067 C 
ATOM      2  C3  <0> d           0.037  -2.555  -0.012  0.00  0.00    -0.013 C 
ENDROOT
BRANCH   2   3
ATOM      3  C4  <0> d           0.018  -1.178  -0.004  0.00  0.00    -0.013 C 
ATOM      4  C5  <0> d           0.002  -0.004   0.002  0.00  0.00    -0.067 C 
BRANCH   4   5
ATOM      5  C6  <0> d          -0.018   1.468   0.010  0.00  0.00     0.072 C 
ATOM      6  H3  <0> d          -0.545   1.829  -0.873  0.00  0.00     0.093 H 
ATOM      7  H4  <0> d          -0.528   1.819   0.907  0.00  0.00     0.093 H 
BRANCH   5   8
ATOM      8  O1  <0> d           1.323   1.962  -0.000  0.00  0.00    -0.389 OA
ATOM      9  H5  <0> d           1.386   2.927   0.004  0.00  0.00     0.210 HD
ENDBRANCH   5   8
ENDBRANCH   4   5
ENDBRANCH   2   3
BRANCH   1  10
ATOM     10  C1  <0> d           0.073  -5.200  -0.027  0.00  0.00     0.072 C 
ATOM     11  H1  <0> d           0.583  -5.552  -0.923  0.00  0.00     0.093 H 
ATOM     12  H2  <0> d           0.600  -5.562   0.857  0.00  0.00     0.093 H 
BRANCH  10  13
ATOM     13  O2  <0> d          -1.268  -5.695  -0.016  0.00  0.00    -0.389 OA
ATOM     14  H6  <0> d          -1.331  -6.660  -0.021  0.00  0.00     0.210 HD
ENDBRANCH  10  13
ENDBRANCH   1  10
TORSDOF 5
