REMARK  6 active torsions:
REMARK  status: ('A' for Active; 'I' for Inactive)
REMARK    1  A    between atoms: C1_1  and  C2_2 
REMARK    2  A    between atoms: C2_2  and  C3_3 
REMARK    3  A    between atoms: C4_4  and  C5_5 
REMARK    4  A    between atoms: C5_5  and  C6_7 
REMARK    5  A    between atoms: C5_5  and  O1_9 
REMARK    6  A    between atoms: C6_7  and  C7_8 
ROOT
ATOM      1  C5  <0> d           0.038  -2.650  -0.013  0.00  0.00     0.093 C 
ATOM      2  H1  <0> d           0.548  -3.001  -0.909  0.00  0.00     0.103 H 
ENDROOT
BRANCH   1   3
ATOM      3  C4  <0> d           0.018  -1.178  -0.004  0.00  0.00    -0.075 C 
ATOM      4  C3  <0> d           0.002  -0.004   0.002  0.00  0.00    -0.104 C 
BRANCH   4   5
ATOM      5  C2  <0> d          -0.018   1.468   0.010  0.00  0.00    -0.012 C 
ATOM      6  H5  <0> d          -0.545   1.829  -0.873  0.00  0.00     0.051 H 
ATOM      7  H6  <0> d          -0.528   1.819   0.907  0.00  0.00     0.051 H 
BRANCH   5   8
ATOM      8  C1  <0> d           1.417   1.997  -0.001  0.00  0.00    -0.067 C 
ATOM      9  H2  <0> d           1.945   1.636   0.882  0.00  0.00     0.028 H 
ATOM     10  H3  <0> d           1.928   1.646  -0.897  0.00  0.00     0.028 H 
ATOM     11  H4  <0> d           1.403   3.087   0.005  0.00  0.00     0.028 H 
ENDBRANCH   5   8
ENDBRANCH   4   5
ENDBRANCH   1   3
BRANCH   1  12
ATOM     12  C6  <0> d           0.778  -3.157   1.227  0.00  0.00    -0.034 C 
ATOM     13  H7  <0> d           1.771  -2.709   1.266  0.00  0.00     0.037 H 
ATOM     14  H8  <0> d           0.220  -2.881   2.122  0.00  0.00     0.037 H 
BRANCH  12  15
ATOM     15  C7  <0> d           0.908  -4.679   1.156  0.00  0.00    -0.073 C 
ATOM     16  H9  <0> d           1.435  -5.040   2.039  0.00  0.00     0.027 H 
ATOM     17  H10 <0> d          -0.085  -5.127   1.117  0.00  0.00     0.027 H 
ATOM     18  H11 <0> d           1.466  -4.955   0.262  0.00  0.00     0.027 H 
ENDBRANCH  12  15
ENDBRANCH   1  12
BRANCH   1  19
ATOM     19  O1  <0> d          -1.303  -3.144  -0.002  0.00  0.00    -0.383 OA
ATOM     20  H12 <0> d          -1.817  -2.870   0.769  0.00  0.00     0.211 HD
ENDBRANCH   1  19
TORSDOF 6
