REMARK  5 active torsions:
REMARK  status: ('A' for Active; 'I' for Inactive)
REMARK    1  A    between atoms: C1_1  and  C2_2 
REMARK    2  A    between atoms: C4_4  and  C10_11 
REMARK    3  A    between atoms: C5_5  and  N1_9 
REMARK    4  A    between atoms: C6_6  and  C8_8 
REMARK    5  A    between atoms: N1_9  and  C9_10 
ROOT
ATOM      1  C2  <0> d           0.781   1.205  -0.046  0.00  0.00    -0.061 A 
ATOM      2  C3  <0> d          -0.511   0.712  -0.055  0.00  0.00    -0.070 A 
ATOM      3  C4  <0> d          -1.584   1.581  -0.024  0.00  0.00    -0.040 A 
ATOM      4  C5  <0> d          -1.364   2.952   0.028  0.00  0.00     0.019 A 
ATOM      5  C6  <0> d          -0.065   3.444   0.037  0.00  0.00    -0.040 A 
ATOM      6  C7  <0> d           1.004   2.569   0.000  0.00  0.00    -0.070 A 
ATOM      7  H4  <0> d          -0.681  -0.354  -0.092  0.00  0.00     0.085 H 
ATOM      8  H5  <0> d           2.014   2.951   0.007  0.00  0.00     0.085 H 
ENDROOT
BRANCH   4   9
ATOM      9  N1  <0> d          -2.446   3.834   0.066  0.00  0.00    -0.296 NA
ATOM     10  H9  <0> d          -3.216   3.439   0.586  0.00  0.00     0.127 HD
BRANCH   9  11
ATOM     11  C9  <0> d          -2.865   4.212  -1.290  0.00  0.00    -0.031 C 
ATOM     12  H10 <0> d          -3.071   3.313  -1.870  0.00  0.00     0.048 H 
ATOM     13  H11 <0> d          -3.765   4.824  -1.235  0.00  0.00     0.048 H 
ATOM     14  H12 <0> d          -2.069   4.780  -1.771  0.00  0.00     0.048 H 
ENDBRANCH   9  11
ENDBRANCH   4   9
BRANCH   3  15
ATOM     15  C10 <0> d          -2.991   1.043  -0.040  0.00  0.00    -0.050 C 
ATOM     16  H13 <0> d          -3.363   0.967   0.982  0.00  0.00     0.033 H 
ATOM     17  H14 <0> d          -3.631   1.717  -0.610  0.00  0.00     0.033 H 
ATOM     18  H15 <0> d          -2.998   0.057  -0.504  0.00  0.00     0.033 H 
ENDBRANCH   3  15
BRANCH   5  19
ATOM     19  C8  <0> d           0.179   4.930   0.087  0.00  0.00    -0.050 C 
ATOM     20  H6  <0> d           0.231   5.324  -0.928  0.00  0.00     0.033 H 
ATOM     21  H7  <0> d          -0.637   5.414   0.624  0.00  0.00     0.033 H 
ATOM     22  H8  <0> d           1.119   5.127   0.602  0.00  0.00     0.033 H 
ENDBRANCH   5  19
BRANCH   1  23
ATOM     23  C1  <0> d           1.949   0.254  -0.086  0.00  0.00    -0.051 C 
ATOM     24  H1  <0> d           2.224   0.060  -1.123  0.00  0.00     0.033 H 
ATOM     25  H2  <0> d           2.796   0.696   0.438  0.00  0.00     0.033 H 
ATOM     26  H3  <0> d           1.671  -0.683   0.397  0.00  0.00     0.033 H 
ENDBRANCH   1  23
TORSDOF 5
