REMARK  1 active torsions:
REMARK  status: ('A' for Active; 'I' for Inactive)
REMARK    1  A    between atoms: C6_6  and  O1_7 
ROOT
ATOM      1  C1  <0> d          -0.017   1.383   0.010  0.00  0.00    -0.048 A 
ATOM      2  C2  <0> d           1.170   2.087   0.002  0.00  0.00    -0.048 A 
ATOM      3  C3  <0> d           2.386   1.412  -0.012  0.00  0.00     0.075 A 
ATOM      4  C4  <0> d           2.404   0.028  -0.017  0.00  0.00    -0.022 A 
ATOM      5  C5  <0> d           1.213  -0.678  -0.011  0.00  0.00    -0.042 A 
ATOM      6  C6  <0> d           0.002  -0.004   0.002  0.00  0.00     0.066 A 
ATOM      7  C7  <0> d           3.701  -0.741  -0.021  0.00  0.00    -0.036 C 
ATOM      8  C8  <0> d           4.844   0.177  -0.463  0.00  0.00    -0.041 C 
ATOM      9  C9  <0> d           4.747   1.484   0.334  0.00  0.00     0.026 C 
ATOM     10  O2  <0> d           3.532   2.143  -0.025  0.00  0.00    -0.351 OA
ATOM     11  H1  <0> d          -0.959   1.911   0.026  0.00  0.00     0.087 H 
ATOM     12  H2  <0> d           1.155   3.167   0.007  0.00  0.00     0.087 H 
ATOM     13  H3  <0> d           1.228  -1.758  -0.018  0.00  0.00     0.088 H 
ATOM     14  H5  <0> d           3.905  -1.115   0.983  0.00  0.00     0.040 H 
ATOM     15  H6  <0> d           3.623  -1.581  -0.711  0.00  0.00     0.040 H 
ATOM     16  H7  <0> d           5.801  -0.305  -0.264  0.00  0.00     0.036 H 
ATOM     17  H8  <0> d           4.753   0.389  -1.528  0.00  0.00     0.036 H 
ATOM     18  H9  <0> d           4.744   1.264   1.402  0.00  0.00     0.075 H 
ATOM     19  H10 <0> d           5.597   2.124   0.094  0.00  0.00     0.075 H 
ENDROOT
BRANCH   6  20
ATOM     20  O1  <0> d          -1.165  -0.701   0.007  0.00  0.00    -0.361 OA
ATOM     21  H4  <0> d          -1.510  -0.898  -0.874  0.00  0.00     0.217 HD
ENDBRANCH   6  20
TORSDOF 1
