REMARK  1 active torsions:
REMARK  status: ('A' for Active; 'I' for Inactive)
REMARK    1  A    between atoms: C6_6  and  O1_7 
ROOT
ATOM      1  C1  <0> d          -0.017   1.383   0.010  0.00  0.00    -0.049 A 
ATOM      2  C2  <0> d           1.165   2.095   0.002  0.00  0.00    -0.054 A 
ATOM      3  C3  <0> d           2.386   1.426  -0.013  0.00  0.00     0.041 A 
ATOM      4  C4  <0> d           2.395   0.037  -0.021  0.00  0.00    -0.020 A 
ATOM      5  C5  <0> d           1.217  -0.676  -0.013  0.00  0.00    -0.042 A 
ATOM      6  C6  <0> d           0.002  -0.004   0.002  0.00  0.00     0.066 A 
ATOM      7  C7  <0> d           3.847  -0.380  -0.036  0.00  0.00     0.035 A 
ATOM      8  C8  <0> d           4.607   0.929  -0.036  0.00  0.00     0.226 A 
ATOM      9  O2  <0> d           5.812   1.063  -0.047  0.00  0.00    -0.273 OA
ATOM     10  N1  <0> d           3.695   1.916  -0.022  0.00  0.00    -0.326 N 
ATOM     11  H1  <0> d          -0.961   1.907   0.026  0.00  0.00     0.087 H 
ATOM     12  H2  <0> d           1.142   3.175   0.008  0.00  0.00     0.087 H 
ATOM     13  H3  <0> d           1.239  -1.756  -0.019  0.00  0.00     0.088 H 
ATOM     14  H5  <0> d           4.087  -0.961   0.854  0.00  0.00     0.054 H 
ATOM     15  H6  <0> d           4.071  -0.951  -0.937  0.00  0.00     0.054 H 
ATOM     16  H7  <0> d           3.919   2.860  -0.020  0.00  0.00     0.169 HD
ENDROOT
BRANCH   6  17
ATOM     17  O1  <0> d          -1.164  -0.703   0.009  0.00  0.00    -0.361 OA
ATOM     18  H4  <0> d          -1.510  -0.900  -0.872  0.00  0.00     0.217 HD
ENDBRANCH   6  17
TORSDOF 1
