REMARK  2 active torsions:
REMARK  status: ('A' for Active; 'I' for Inactive)
REMARK    1  A    between atoms: C1_1  and  C2_2 
REMARK    2  A    between atoms: C7_10  and  C8_11 
ROOT
ATOM      1  C2  <0> d           2.394  -0.004  -0.020  0.00  0.00    -0.014 A 
ATOM      2  C3  <0> d           1.224  -0.698  -0.013  0.00  0.00    -0.072 A 
ATOM      3  C4  <0> d           0.002  -0.004   0.002  0.00  0.00    -0.067 A 
ATOM      4  C5  <0> d          -0.016   1.345   0.009  0.00  0.00    -0.012 A 
ATOM      5  N1  <0> d           1.149   2.054   0.002  0.00  0.00    -0.291 N 
ATOM      6  C6  <0> d           2.359   1.403  -0.013  0.00  0.00     0.163 A 
ATOM      7  N2  <0> d           3.296   2.337  -0.017  0.00  0.00    -0.129 NA
ATOM      8  N3  <0> d           2.744   3.500  -0.005  0.00  0.00    -0.135 NA
ATOM      9  C7  <0> d           1.441   3.383   0.006  0.00  0.00     0.130 A 
ATOM     10  H4  <0> d           1.234  -1.778  -0.018  0.00  0.00     0.084 H 
ATOM     11  H5  <0> d          -0.927  -0.554   0.008  0.00  0.00     0.085 H 
ATOM     12  H6  <0> d          -0.961   1.868   0.017  0.00  0.00     0.112 H 
ENDROOT
BRANCH   1  13
ATOM     13  C1  <0> d           3.713  -0.734  -0.037  0.00  0.00    -0.048 C 
ATOM     14  H1  <0> d           4.021  -0.904  -1.068  0.00  0.00     0.033 H 
ATOM     15  H2  <0> d           4.466  -0.133   0.473  0.00  0.00     0.033 H 
ATOM     16  H3  <0> d           3.605  -1.691   0.473  0.00  0.00     0.033 H 
ENDBRANCH   1  13
BRANCH   9  17
ATOM     17  C8  <0> d           0.445   4.513   0.021  0.00  0.00    -0.019 C 
ATOM     18  H7  <0> d           0.195   4.791  -1.003  0.00  0.00     0.037 H 
ATOM     19  H8  <0> d          -0.458   4.195   0.542  0.00  0.00     0.037 H 
ATOM     20  H9  <0> d           0.877   5.372   0.535  0.00  0.00     0.037 H 
ENDBRANCH   9  17
TORSDOF 2
