REMARK  5 active torsions:
REMARK  status: ('A' for Active; 'I' for Inactive)
REMARK    1  A    between atoms: C1_1  and  C2_2 
REMARK    2  A    between atoms: C5_6  and  C9_11 
REMARK    3  A    between atoms: C5_6  and  C10_12 
REMARK    4  A    between atoms: C6_7  and  C8_10 
REMARK    5  A    between atoms: C10_12  and  O1_13 
ROOT
ATOM      1  C2  <0> d          -1.413  -2.063   0.004  0.00  0.00    -0.057 C 
ATOM      2  H1  <0> d          -0.902  -2.415  -0.892  0.00  0.00     0.039 H 
ATOM      3  C3  <0> d          -0.673  -2.570   1.244  0.00  0.00    -0.061 C 
ATOM      4  C4  <0> d           0.763  -2.041   1.233  0.00  0.00    -0.056 C 
ATOM      5  C5  <0> d           0.742  -0.511   1.242  0.00  0.00    -0.019 C 
ATOM      6  C6  <0> d           0.002  -0.004   0.002  0.00  0.00    -0.048 C 
ATOM      7  H2  <0> d           0.512  -0.356  -0.895  0.00  0.00     0.040 H 
ATOM      8  C7  <0> d          -1.433  -0.534   0.013  0.00  0.00    -0.058 C 
ATOM      9  H6  <0> d          -0.658  -3.660   1.238  0.00  0.00     0.033 H 
ATOM     10  H7  <0> d          -1.183  -2.219   2.141  0.00  0.00     0.033 H 
ATOM     11  H8  <0> d           1.273  -2.392   0.336  0.00  0.00     0.034 H 
ATOM     12  H9  <0> d           1.290  -2.402   2.116  0.00  0.00     0.034 H 
ATOM     13  H10 <0> d          -1.944  -0.182   0.910  0.00  0.00     0.034 H 
ATOM     14  H11 <0> d          -1.960  -0.173  -0.870  0.00  0.00     0.034 H 
ENDROOT
BRANCH   5  15
ATOM     15  C9  <0> d           2.178   0.019   1.231  0.00  0.00    -0.067 C 
ATOM     16  H15 <0> d           2.163   1.109   1.237  0.00  0.00     0.028 H 
ATOM     17  H16 <0> d           2.705  -0.342   2.114  0.00  0.00     0.028 H 
ATOM     18  H17 <0> d           2.688  -0.333   0.334  0.00  0.00     0.028 H 
ENDBRANCH   5  15
BRANCH   5  19
ATOM     19  C10 <0> d           0.026  -0.018   2.500  0.00  0.00     0.024 C 
ATOM     20  H18 <0> d           0.011   1.072   2.506  0.00  0.00     0.075 H 
ATOM     21  H19 <0> d          -0.997  -0.395   2.508  0.00  0.00     0.075 H 
BRANCH  19  22
ATOM     22  O1  <0> d           0.717  -0.491   3.658  0.00  0.00    -0.400 OA
ATOM     23  H20 <0> d           0.318  -0.215   4.495  0.00  0.00     0.209 HD
ENDBRANCH  19  22
ENDBRANCH   5  19
BRANCH   6  24
ATOM     24  C8  <0> d          -0.019   1.526   0.010  0.00  0.00    -0.072 C 
ATOM     25  H12 <0> d           1.004   1.903   0.003  0.00  0.00     0.028 H 
ATOM     26  H13 <0> d          -0.546   1.887  -0.873  0.00  0.00     0.028 H 
ATOM     27  H14 <0> d          -0.529   1.877   0.907  0.00  0.00     0.028 H 
ENDBRANCH   6  24
BRANCH   1  28
ATOM     28  C1  <0> d          -2.848  -2.593   0.015  0.00  0.00    -0.073 C 
ATOM     29  H3  <0> d          -3.358  -2.241   0.912  0.00  0.00     0.028 H 
ATOM     30  H4  <0> d          -3.375  -2.232  -0.868  0.00  0.00     0.028 H 
ATOM     31  H5  <0> d          -2.833  -3.683   0.009  0.00  0.00     0.028 H 
ENDBRANCH   1  28
TORSDOF 5
