REMARK  4 active torsions:
REMARK  status: ('A' for Active; 'I' for Inactive)
REMARK    1  A    between atoms: C2_2  and  C3_3 
REMARK    2  A    between atoms: C3_3  and  N1_4 
REMARK       I    between atoms: N1_4  and  C4_5 
REMARK       I    between atoms: C4_5  and  N2_7 
REMARK    3  A    between atoms: N2_7  and  C5_8 
REMARK    4  A    between atoms: C5_8  and  C6_9 
ROOT
ATOM      1  N1  <0> d          -3.270   1.369   1.157  0.00  0.00    -0.340 N 
ATOM      2  C4  <0> d          -4.480   0.811   1.361  0.00  0.00     0.316 C 
ATOM      3  O1  <0> d          -4.891  -0.045   0.601  0.00  0.00    -0.247 OA
ATOM      4  N2  <0> d          -5.234   1.202   2.408  0.00  0.00    -0.340 N 
ATOM      5  H6  <0> d          -2.942   2.051   1.763  0.00  0.00     0.164 HD
ATOM      6  H7  <0> d          -4.906   1.884   3.014  0.00  0.00     0.164 HD
ENDROOT
BRANCH   1   7
ATOM      7  C3  <0> d          -2.451   0.944   0.019  0.00  0.00     0.011 C 
ATOM      8  H4  <0> d          -2.989   1.136  -0.909  0.00  0.00     0.070 H 
ATOM      9  H5  <0> d          -2.239  -0.122   0.102  0.00  0.00     0.070 H 
BRANCH   7  10
ATOM     10  C2  <0> d          -1.156   1.715   0.017  0.00  0.00    -0.095 C 
ATOM     11  C1  <0> d          -0.013   1.076   0.008  0.00  0.00    -0.123 C 
ATOM     12  H1  <0> d           0.002  -0.004   0.002  0.00  0.00     0.066 H 
ATOM     13  H2  <0> d           0.915   1.629   0.002  0.00  0.00     0.066 H 
ATOM     14  H3  <0> d          -1.171   2.795   0.023  0.00  0.00     0.078 H 
ENDBRANCH   7  10
ENDBRANCH   1   7
BRANCH   4  15
ATOM     15  C5  <0> d          -6.549   0.595   2.630  0.00  0.00     0.011 C 
ATOM     16  H8  <0> d          -7.185   0.779   1.764  0.00  0.00     0.070 H 
ATOM     17  H9  <0> d          -6.434  -0.479   2.774  0.00  0.00     0.070 H 
BRANCH  15  18
ATOM     18  C6  <0> d          -7.181   1.202   3.856  0.00  0.00    -0.095 C 
ATOM     19  C7  <0> d          -8.371   1.745   3.778  0.00  0.00    -0.123 C 
ATOM     20  H11 <0> d          -8.824   2.180   4.657  0.00  0.00     0.066 H 
ATOM     21  H12 <0> d          -8.899   1.757   2.836  0.00  0.00     0.066 H 
ATOM     22  H10 <0> d          -6.654   1.190   4.798  0.00  0.00     0.078 H 
ENDBRANCH  15  18
ENDBRANCH   4  15
TORSDOF 4
