REMARK  0 active torsions:
REMARK  status: ('A' for Active; 'I' for Inactive)
ROOT
ATOM      1  C1  <0> d           0.002  -0.004   0.002  0.00  0.00    -0.075 A 
ATOM      2  C2  <0> d           1.202  -0.655  -0.013  0.00  0.00    -0.017 A 
ATOM      3  C3  <0> d           2.390   0.092  -0.020  0.00  0.00     0.246 A 
ATOM      4  O1  <0> d           3.469  -0.479  -0.034  0.00  0.00    -0.268 OA
ATOM      5  N1  <0> d           2.341   1.437  -0.013  0.00  0.00    -0.314 N 
ATOM      6  H1  <0> d           3.166   1.947  -0.018  0.00  0.00     0.170 HD
ATOM      7  C4  <0> d           1.149   2.088   0.002  0.00  0.00     0.106 A 
ATOM      8  C5  <0> d          -0.017   1.396   0.010  0.00  0.00    -0.045 A 
ATOM      9 Cl1  <0> d           1.118   3.824   0.012  0.00  0.00    -0.064 Cl
ATOM     10  H2  <0> d          -0.922  -0.563   0.008  0.00  0.00     0.083 H 
ATOM     11  H3  <0> d           1.236  -1.735  -0.019  0.00  0.00     0.092 H 
ATOM     12  H4  <0> d          -0.959   1.924   0.017  0.00  0.00     0.088 H 
ENDROOT
TORSDOF 0
