REMARK  1 active torsions:
REMARK  status: ('A' for Active; 'I' for Inactive)
REMARK    1  A    between atoms: C4_4  and  C7_7 
ROOT
ATOM      1  C1  <0> d           1.278   6.322   0.021  0.00  0.00    -0.083 A 
ATOM      2  C2  <0> d           2.464   5.609   0.007  0.00  0.00    -0.082 A 
ATOM      3  C3  <0> d           2.443   4.229   0.001  0.00  0.00    -0.072 A 
ATOM      4  C4  <0> d           1.225   3.554   0.009  0.00  0.00    -0.026 A 
ATOM      5  C5  <0> d           0.033   4.276   0.018  0.00  0.00    -0.072 A 
ATOM      6  C6  <0> d           0.066   5.656   0.029  0.00  0.00    -0.082 A 
ATOM      7  H1  <0> d           1.299   7.401   0.026  0.00  0.00     0.083 H 
ATOM      8  H2  <0> d           3.408   6.134   0.001  0.00  0.00     0.083 H 
ATOM      9  H3  <0> d           3.370   3.675  -0.011  0.00  0.00     0.084 H 
ATOM     10  H4  <0> d          -0.914   3.757   0.020  0.00  0.00     0.084 H 
ATOM     11  H5  <0> d          -0.857   6.217   0.040  0.00  0.00     0.083 H 
ENDROOT
BRANCH   4  12
ATOM     12  C7  <0> d           1.196   2.070   0.002  0.00  0.00    -0.023 A 
ATOM     13  C11 <0> d           2.381   1.329  -0.013  0.00  0.00    -0.055 A 
ATOM     14  C10 <0> d           2.309  -0.049  -0.021  0.00  0.00     0.003 A 
ATOM     15  H9  <0> d           3.339   1.828  -0.020  0.00  0.00     0.087 H 
ATOM     16  N1  <0> d           1.143  -0.666  -0.013  0.00  0.00    -0.273 NA
ATOM     17  H8  <0> d           3.220  -0.630  -0.033  0.00  0.00     0.114 H 
ATOM     18  C9  <0> d           0.002  -0.004   0.002  0.00  0.00     0.003 A 
ATOM     19  C8  <0> d          -0.017   1.376   0.010  0.00  0.00    -0.055 A 
ATOM     20  H7  <0> d          -0.930  -0.550   0.008  0.00  0.00     0.114 H 
ATOM     21  H6  <0> d          -0.955   1.911   0.017  0.00  0.00     0.087 H 
ENDBRANCH   4  12
TORSDOF 1
