REMARK  0 active torsions:
REMARK  status: ('A' for Active; 'I' for Inactive)
ROOT
ATOM      1  C1  <0> d          -0.016   1.300   0.009  0.00  0.00     0.089 A 
ATOM      2  N1  <0> d           1.254   1.784  -0.000  0.00  0.00    -0.235 NA
ATOM      3  C2  <0> d           2.101   0.701  -0.014  0.00  0.00     0.145 A 
ATOM      4  C3  <0> d           3.487   0.524  -0.028  0.00  0.00     0.170 A 
ATOM      5  N2  <0> d           3.968  -0.720  -0.039  0.00  0.00    -0.228 NA
ATOM      6  C4  <0> d           3.161  -1.762  -0.037  0.00  0.00     0.090 A 
ATOM      7  N3  <0> d           1.850  -1.645  -0.025  0.00  0.00    -0.220 NA
ATOM      8  C5  <0> d           1.275  -0.442  -0.013  0.00  0.00     0.183 A 
ATOM      9  N4  <0> d           0.002  -0.004   0.002  0.00  0.00    -0.220 NA
ATOM     10  C6  <0> d           4.371   1.651  -0.031  0.00  0.00     0.122 C 
ATOM     11  N5  <0> d           5.072   2.545  -0.033  0.00  0.00    -0.190 NA
ATOM     12  H1  <0> d          -0.909   1.906   0.025  0.00  0.00     0.146 H 
ATOM     13  H2  <0> d           3.592  -2.752  -0.046  0.00  0.00     0.146 H 
ENDROOT
TORSDOF 0
