REMARK  0 active torsions:
REMARK  status: ('A' for Active; 'I' for Inactive)
ROOT
ATOM      1  C1  <0> d          -0.017   1.377   0.010  0.00  0.00    -0.082 A 
ATOM      2  C2  <0> d           1.172   2.084   0.002  0.00  0.00    -0.080 A 
ATOM      3  C3  <0> d           2.375   1.409  -0.011  0.00  0.00    -0.050 A 
ATOM      4  C4  <0> d           2.398   0.018  -0.018  0.00  0.00     0.076 A 
ATOM      5  C5  <0> d           1.207  -0.687  -0.014  0.00  0.00    -0.007 A 
ATOM      6  C6  <0> d           0.002  -0.004   0.002  0.00  0.00    -0.073 A 
ATOM      7  C7  <0> d           1.187  -2.194  -0.033  0.00  0.00     0.060 C 
ATOM      8  H1  <0> d           0.954  -2.541  -1.039  0.00  0.00     0.070 H 
ATOM      9  C8  <0> d           2.556  -2.734   0.389  0.00  0.00    -0.026 C 
ATOM     10  C9  <0> d           3.634  -1.986  -0.407  0.00  0.00     0.028 C 
ATOM     11  O1  <0> d           3.602  -0.610  -0.025  0.00  0.00    -0.350 OA
ATOM     12  C10 <0> d           0.160  -2.682   0.903  0.00  0.00     0.069 C 
ATOM     13  N1  <0> d          -0.632  -3.058   1.625  0.00  0.00    -0.197 NA
ATOM     14  H2  <0> d          -0.959   1.904   0.026  0.00  0.00     0.083 H 
ATOM     15  H3  <0> d           1.158   3.164   0.006  0.00  0.00     0.083 H 
ATOM     16  H4  <0> d           3.302   1.963  -0.016  0.00  0.00     0.087 H 
ATOM     17  H5  <0> d          -0.927  -0.554   0.009  0.00  0.00     0.084 H 
ATOM     18  H6  <0> d           2.704  -2.567   1.456  0.00  0.00     0.038 H 
ATOM     19  H7  <0> d           2.613  -3.800   0.172  0.00  0.00     0.038 H 
ATOM     20  H8  <0> d           4.614  -2.407  -0.182  0.00  0.00     0.075 H 
ATOM     21  H9  <0> d           3.431  -2.077  -1.474  0.00  0.00     0.075 H 
ENDROOT
TORSDOF 0
