REMARK  2 active torsions:
REMARK  status: ('A' for Active; 'I' for Inactive)
REMARK    1  A    between atoms: C1_1  and  O1_2 
REMARK    2  A    between atoms: O1_2  and  C2_3 
ROOT
ATOM      1  C2  <0> d           1.157   3.172   0.008  0.00  0.00     0.109 A 
ATOM      2  C3  <0> d          -0.054   3.846   0.022  0.00  0.00    -0.011 A 
ATOM      3  C4  <0> d          -1.241   3.135   0.030  0.00  0.00     0.119 A 
ATOM      4  C5  <0> d          -1.219   1.750   0.017  0.00  0.00    -0.043 A 
ATOM      5  C6  <0> d          -0.013   1.076   0.008  0.00  0.00    -0.040 A 
ATOM      6  C7  <0> d           1.176   1.783   0.000  0.00  0.00     0.149 A 
ATOM      7  F1  <0> d           2.355   1.123  -0.014  0.00  0.00    -0.203 F 
ATOM      8  F2  <0> d          -2.422   3.791   0.044  0.00  0.00    -0.206 F 
ATOM      9  H4  <0> d          -0.072   4.926   0.028  0.00  0.00     0.092 H 
ATOM     10  H5  <0> d          -2.147   1.196   0.019  0.00  0.00     0.088 H 
ATOM     11  H6  <0> d           0.002  -0.004   0.002  0.00  0.00     0.088 H 
ENDROOT
BRANCH   1  12
ATOM     12  O1  <0> d           2.324   3.869   0.001  0.00  0.00    -0.353 OA
BRANCH  12  13
ATOM     13  C1  <0> d           2.228   5.295   0.009  0.00  0.00     0.011 C 
ATOM     14  H1  <0> d           3.229   5.726   0.002  0.00  0.00     0.066 H 
ATOM     15  H2  <0> d           1.683   5.627  -0.875  0.00  0.00     0.066 H 
ATOM     16  H3  <0> d           1.699   5.618   0.905  0.00  0.00     0.066 H 
ENDBRANCH  12  13
ENDBRANCH   1  12
TORSDOF 2
