REMARK  2 active torsions:
REMARK  status: ('A' for Active; 'I' for Inactive)
REMARK    1  A    between atoms: C1_1  and  C2_2 
REMARK    2  A    between atoms: C2_2  and  C3_3 
ROOT
ATOM      1  C3  <0> d           0.000   1.080   2.488  0.00  0.00     0.052 A 
ATOM      2  C4  <0> d           0.998   1.719   3.124  0.00  0.00    -0.052 A 
ATOM      3  C5  <0> d           1.385   0.897   4.208  0.00  0.00    -0.059 A 
ATOM      4  C6  <0> d           0.600  -0.194   4.169  0.00  0.00     0.019 A 
ATOM      5  O1  <0> d          -0.241  -0.075   3.128  0.00  0.00    -0.327 OA
ATOM      6  H6  <0> d           1.423   2.675   2.858  0.00  0.00     0.087 H 
ATOM      7  H7  <0> d           2.162   1.106   4.928  0.00  0.00     0.086 H 
ATOM      8  H8  <0> d           0.636  -1.023   4.860  0.00  0.00     0.123 H 
ENDROOT
BRANCH   1   9
ATOM      9  C2  <0> d          -0.729   1.579   1.267  0.00  0.00    -0.024 C 
ATOM     10  H4  <0> d          -0.744   2.669   1.273  0.00  0.00     0.042 H 
ATOM     11  H5  <0> d          -1.751   1.202   1.275  0.00  0.00     0.042 H 
BRANCH   9  12
ATOM     12  C1  <0> d          -0.013   1.086   0.008  0.00  0.00    -0.071 C 
ATOM     13  H1  <0> d           0.002  -0.004   0.002  0.00  0.00     0.028 H 
ATOM     14  H2  <0> d           1.010   1.463   0.000  0.00  0.00     0.028 H 
ATOM     15  H3  <0> d          -0.540   1.447  -0.875  0.00  0.00     0.028 H 
ENDBRANCH   9  12
ENDBRANCH   1   9
TORSDOF 2
