REMARK  6 active torsions:
REMARK  status: ('A' for Active; 'I' for Inactive)
REMARK    1  A    between atoms: C1_1  and  O1_2 
REMARK    2  A    between atoms: O1_2  and  C2_3 
REMARK    3  A    between atoms: C2_3  and  C3_4 
REMARK    4  A    between atoms: C3_4  and  C4_6 
REMARK    5  A    between atoms: C4_6  and  O3_7 
REMARK    6  A    between atoms: O3_7  and  C5_8 
ROOT
ATOM      1  C3  <0> d          -1.412  -0.526   0.013  0.00  0.00     0.173 C 
ATOM      2  O2  <0> d          -2.340   0.246   0.026  0.00  0.00    -0.293 OA
ENDROOT
BRANCH   1   3
ATOM      3  C2  <0> d           0.002  -0.004   0.002  0.00  0.00     0.076 C 
ATOM      4  H4  <0> d           0.470  -0.327  -0.821  0.00  0.00     0.086 H 
ATOM      5  H5  <0> d           0.529  -0.365   0.885  0.00  0.00     0.086 H 
BRANCH   3   6
ATOM      6  O1  <0> d          -0.017   1.425   0.010  0.00  0.00    -0.389 OA
BRANCH   6   7
ATOM      7  C1  <0> d           1.280   2.024   0.001  0.00  0.00     0.004 C 
ATOM      8  H1  <0> d           1.834   1.705   0.884  0.00  0.00     0.066 H 
ATOM      9  H2  <0> d           1.817   1.714  -0.896  0.00  0.00     0.066 H 
ATOM     10  H3  <0> d           1.179   3.109   0.007  0.00  0.00     0.066 H 
ENDBRANCH   6   7
ENDBRANCH   3   6
ENDBRANCH   1   3
BRANCH   1  11
ATOM     11  C4  <0> d          -1.667  -2.011   0.007  0.00  0.00     0.076 C 
ATOM     12  H6  <0> d          -1.267  -2.415  -0.815  0.00  0.00     0.086 H 
ATOM     13  H7  <0> d          -1.214  -2.461   0.890  0.00  0.00     0.086 H 
BRANCH  11  14
ATOM     14  O3  <0> d          -3.075  -2.252   0.019  0.00  0.00    -0.389 OA
BRANCH  14  15
ATOM     15  C5  <0> d          -3.428  -3.637   0.015  0.00  0.00     0.004 C 
ATOM     16  H8  <0> d          -3.011  -4.121   0.899  0.00  0.00     0.066 H 
ATOM     17  H9  <0> d          -4.513  -3.736   0.025  0.00  0.00     0.066 H 
ATOM     18  H10 <0> d          -3.028  -4.111  -0.881  0.00  0.00     0.066 H 
ENDBRANCH  14  15
ENDBRANCH  11  14
ENDBRANCH   1  11
TORSDOF 6
