REMARK  4 active torsions:
REMARK  status: ('A' for Active; 'I' for Inactive)
REMARK    1  A    between atoms: C1_1  and  C2_2 
REMARK    2  A    between atoms: C5_5  and  N1_10 
REMARK    3  A    between atoms: C6_6  and  O1_8 
REMARK    4  A    between atoms: O1_8  and  C8_9 
ROOT
ATOM      1  C2  <0> d          -1.241   3.133   0.030  0.00  0.00    -0.059 A 
ATOM      2  C3  <0> d          -1.219   1.751   0.017  0.00  0.00    -0.075 A 
ATOM      3  C4  <0> d          -0.013   1.076   0.008  0.00  0.00    -0.054 A 
ATOM      4  C5  <0> d           1.179   1.786   0.000  0.00  0.00     0.059 A 
ATOM      5  C6  <0> d           1.156   3.179   0.008  0.00  0.00     0.094 A 
ATOM      6  C7  <0> d          -0.057   3.848   0.022  0.00  0.00    -0.043 A 
ATOM      7  H4  <0> d          -2.146   1.197   0.019  0.00  0.00     0.084 H 
ATOM      8  H5  <0> d           0.002  -0.004   0.002  0.00  0.00     0.087 H 
ATOM      9  H6  <0> d          -0.078   4.927   0.028  0.00  0.00     0.088 H 
ENDROOT
BRANCH   5  10
ATOM     10  O1  <0> d           2.321   3.880   0.001  0.00  0.00    -0.354 OA
BRANCH  10  11
ATOM     11  C8  <0> d           2.220   5.306   0.009  0.00  0.00     0.010 C 
ATOM     12  H7  <0> d           1.674   5.636  -0.875  0.00  0.00     0.066 H 
ATOM     13  H8  <0> d           1.690   5.628   0.905  0.00  0.00     0.066 H 
ATOM     14  H9  <0> d           3.220   5.741   0.002  0.00  0.00     0.066 H 
ENDBRANCH  10  11
ENDBRANCH   5  10
BRANCH   4  15
ATOM     15  N1  <0> d           2.402   1.105  -0.015  0.00  0.00    -0.397 N 
ATOM     16  H10 <0> d           2.417   0.135  -0.020  0.00  0.00     0.156 HD
ATOM     17  H11 <0> d           3.234   1.603  -0.020  0.00  0.00     0.156 HD
ENDBRANCH   4  15
BRANCH   1  18
ATOM     18  C1  <0> d          -2.559   3.863   0.046  0.00  0.00    -0.051 C 
ATOM     19  H1  <0> d          -2.887   4.044  -0.978  0.00  0.00     0.033 H 
ATOM     20  H2  <0> d          -3.304   3.258   0.564  0.00  0.00     0.033 H 
ATOM     21  H3  <0> d          -2.441   4.815   0.563  0.00  0.00     0.033 H 
ENDBRANCH   1  18
TORSDOF 4
