REMARK  0 active torsions:
REMARK  status: ('A' for Active; 'I' for Inactive)
ROOT
ATOM      1  C1  <0> d           2.418   0.034  -0.021  0.00  0.00    -0.053 A 
ATOM      2  C2  <0> d           2.385   1.411  -0.013  0.00  0.00    -0.040 A 
ATOM      3  C3  <0> d           1.174   2.091   0.002  0.00  0.00     0.155 A 
ATOM      4  C4  <0> d          -0.017   1.393   0.010  0.00  0.00     0.167 A 
ATOM      5  C5  <0> d           0.002  -0.004   0.002  0.00  0.00     0.034 A 
ATOM      6  C6  <0> d           1.230  -0.690  -0.013  0.00  0.00     0.045 A 
ATOM      7  N1  <0> d           0.942  -2.037  -0.018  0.00  0.00    -0.365 N 
ATOM      8  H1  <0> d           1.602  -2.748  -0.028  0.00  0.00     0.165 HD
ATOM      9  C7  <0> d          -0.414  -2.223  -0.006  0.00  0.00    -0.022 A 
ATOM     10  C8  <0> d          -1.038  -1.036   0.006  0.00  0.00    -0.053 A 
ATOM     11  F1  <0> d          -1.194   2.057   0.019  0.00  0.00    -0.202 F 
ATOM     12  F2  <0> d           1.162   3.442   0.009  0.00  0.00    -0.203 F 
ATOM     13  H2  <0> d           3.365  -0.484  -0.032  0.00  0.00     0.087 H 
ATOM     14  H3  <0> d           3.311   1.968  -0.019  0.00  0.00     0.088 H 
ATOM     15  H4  <0> d          -0.908  -3.184  -0.007  0.00  0.00     0.111 H 
ATOM     16  H5  <0> d          -2.106  -0.871   0.018  0.00  0.00     0.087 H 
ENDROOT
TORSDOF 0
