REMARK  9 active torsions:
REMARK  status: ('A' for Active; 'I' for Inactive)
REMARK    1  A    between atoms: C1_1  and  C2_2 
REMARK    2  A    between atoms: C1_1  and  C6_11 
REMARK    3  A    between atoms: C2_2  and  C3_3 
REMARK    4  A    between atoms: C3_3  and  C4_5 
REMARK    5  A    between atoms: C3_3  and  O3_10 
REMARK    6  A    between atoms: C4_5  and  C5_7 
REMARK    7  A    between atoms: C4_5  and  O2_9 
REMARK    8  A    between atoms: C5_7  and  O1_8 
REMARK    9  A    between atoms: C6_11  and  O4_12 
ROOT
ATOM      1  C3  <0> d           2.040   1.127  -1.261  0.00  0.00     0.062 C 
ATOM      2  H1  <0> d           2.140   0.042  -1.268  0.00  0.00     0.086 H 
ENDROOT
BRANCH   1   3
ATOM      3  C2  <0> d           1.262   1.575  -2.500  0.00  0.00    -0.037 C 
ATOM      4  H5  <0> d           0.244   1.191  -2.449  0.00  0.00     0.036 H 
ATOM      5  H6  <0> d           1.238   2.664  -2.540  0.00  0.00     0.036 H 
BRANCH   3   6
ATOM      6  C1  <0> d           1.949   1.034  -3.756  0.00  0.00    -0.043 C 
ATOM      7  H3  <0> d           2.968   1.419  -3.807  0.00  0.00     0.036 H 
ATOM      8  H4  <0> d           1.974  -0.055  -3.716  0.00  0.00     0.036 H 
BRANCH   6   9
ATOM      9  C6  <0> d           1.172   1.482  -4.995  0.00  0.00     0.017 C 
ATOM     10  H12 <0> d           0.153   1.097  -4.944  0.00  0.00     0.073 H 
ATOM     11  H13 <0> d           1.148   2.571  -5.035  0.00  0.00     0.073 H 
BRANCH   9  12
ATOM     12  O4  <0> d           1.813   0.977  -6.168  0.00  0.00    -0.401 OA
ATOM     13  H14 <0> d           1.374   1.222  -6.994  0.00  0.00     0.209 HD
ENDBRANCH   9  12
ENDBRANCH   6   9
ENDBRANCH   3   6
ENDBRANCH   1   3
BRANCH   1  14
ATOM     14  C4  <0> d           1.286   1.562  -0.002  0.00  0.00     0.080 C 
ATOM     15  H2  <0> d           1.186   2.647   0.005  0.00  0.00     0.090 H 
BRANCH  14  16
ATOM     16  C5  <0> d           2.064   1.114   1.238  0.00  0.00     0.043 C 
ATOM     17  H7  <0> d           2.088   0.025   1.278  0.00  0.00     0.078 H 
ATOM     18  H8  <0> d           3.082   1.498   1.186  0.00  0.00     0.078 H 
BRANCH  16  19
ATOM     19  O1  <0> d           1.422   1.619   2.410  0.00  0.00    -0.398 OA
ATOM     20  H9  <0> d           1.862   1.374   3.236  0.00  0.00     0.209 HD
ENDBRANCH  16  19
ENDBRANCH  14  16
BRANCH  14  21
ATOM     21  O2  <0> d          -0.011   0.963   0.007  0.00  0.00    -0.391 OA
ATOM     22  H10 <0> d           0.002  -0.004   0.002  0.00  0.00     0.210 HD
ENDBRANCH  14  21
ENDBRANCH   1  14
BRANCH   1  23
ATOM     23  O3  <0> d           3.337   1.726  -1.270  0.00  0.00    -0.393 OA
ATOM     24  H11 <0> d           3.324   2.693  -1.264  0.00  0.00     0.210 HD
ENDBRANCH   1  23
TORSDOF 9
