REMARK  4 active torsions:
REMARK  status: ('A' for Active; 'I' for Inactive)
REMARK    1  A    between atoms: C1_1  and  N1_2 
REMARK    2  A    between atoms: C2_3  and  O3_12 
REMARK    3  A    between atoms: C3_5  and  O2_11 
REMARK    4  A    between atoms: N2_7  and  C5_10 
ROOT
ATOM      1  N1  <0> d           1.880   3.408   1.363  0.00  0.00    -0.308 N 
ATOM      2  C2  <0> d           1.175   3.095   0.111  0.00  0.00     0.148 A 
ATOM      3  H1  <0> d           0.131   3.399   0.174  0.00  0.00     0.124 H 
ATOM      4  C3  <0> d           1.286   1.562  -0.002  0.00  0.00     0.148 A 
ATOM      5  H2  <0> d           1.830   1.281  -0.904  0.00  0.00     0.124 H 
ATOM      6  N2  <0> d           2.042   1.174   1.198  0.00  0.00    -0.308 N 
ATOM      7  C4  <0> d           2.335   2.272   1.908  0.00  0.00     0.324 A 
ATOM      8  O1  <0> d           2.958   2.241   2.952  0.00  0.00    -0.247 OA
ENDROOT
BRANCH   1   9
ATOM      9  C1  <0> d           2.058   4.750   1.924  0.00  0.00    -0.012 C 
ATOM     10  H3  <0> d           2.617   4.682   2.857  0.00  0.00     0.056 H 
ATOM     11  H4  <0> d           2.606   5.370   1.216  0.00  0.00     0.056 H 
ATOM     12  H5  <0> d           1.081   5.194   2.118  0.00  0.00     0.056 H 
ENDBRANCH   1   9
BRANCH   2  13
ATOM     13  O3  <0> d           1.817   3.727  -0.998  0.00  0.00    -0.372 OA
ATOM     14  H10 <0> d           1.777   4.693  -0.978  0.00  0.00     0.212 HD
ENDBRANCH   2  13
BRANCH   6  15
ATOM     15  C5  <0> d           2.416  -0.195   1.561  0.00  0.00    -0.012 C 
ATOM     16  H6  <0> d           3.388  -0.433   1.130  0.00  0.00     0.056 H 
ATOM     17  H7  <0> d           2.469  -0.282   2.646  0.00  0.00     0.056 H 
ATOM     18  H8  <0> d           1.669  -0.889   1.177  0.00  0.00     0.056 H 
ENDBRANCH   6  15
BRANCH   4  19
ATOM     19  O2  <0> d          -0.011   0.963   0.007  0.00  0.00    -0.372 OA
ATOM     20  H9  <0> d           0.002  -0.004   0.002  0.00  0.00     0.212 HD
ENDBRANCH   4  19
TORSDOF 4
