REMARK  1 active torsions:
REMARK  status: ('A' for Active; 'I' for Inactive)
REMARK    1  A    between atoms: C9_13  and  O1_16 
ROOT
ATOM      1  C1  <0> d          -1.427   3.940   1.717  0.00  0.00    -0.046 C 
ATOM      2  C2  <0> d          -0.979   2.998   2.943  0.00  0.00    -0.106 C 
ATOM      3  C3  <0> d          -0.653   1.778   2.498  0.00  0.00    -0.102 C 
ATOM      4  C4  <0> d          -0.944   1.716   1.039  0.00  0.00    -0.028 C 
ATOM      5  H1  <0> d          -1.982   1.441   0.850  0.00  0.00     0.047 H 
ATOM      6  C5  <0> d          -0.656   3.264   0.666  0.00  0.00    -0.041 C 
ATOM      7  H2  <0> d           0.348   3.394   1.068  0.00  0.00     0.042 H 
ATOM      8  C6  <0> d          -0.358   3.268  -0.788  0.00  0.00    -0.047 C 
ATOM      9  H3  <0> d          -0.774   4.082  -1.381  0.00  0.00     0.040 H 
ATOM     10  C7  <0> d          -0.652   1.787  -1.268  0.00  0.00    -0.055 C 
ATOM     11  C8  <0> d          -0.013   1.086   0.008  0.00  0.00    -0.022 C 
ATOM     12  H4  <0> d           0.002  -0.004   0.002  0.00  0.00     0.044 H 
ATOM     13  C9  <0> d           1.378   1.758  -0.002  0.00  0.00     0.040 C 
ATOM     14  H5  <0> d           1.719   1.924   1.020  0.00  0.00     0.083 H 
ATOM     15  C10 <0> d           1.217   3.118  -0.734  0.00  0.00    -0.037 C 
ATOM     16  H6  <0> d          -1.119   4.980   1.832  0.00  0.00     0.039 H 
ATOM     17  H7  <0> d          -2.499   3.862   1.540  0.00  0.00     0.039 H 
ATOM     18  H8  <0> d          -0.929   3.319   3.973  0.00  0.00     0.076 H 
ATOM     19  H9  <0> d          -0.249   0.975   3.097  0.00  0.00     0.077 H 
ATOM     20  H10 <0> d          -0.110   1.547  -2.183  0.00  0.00     0.034 H 
ATOM     21  H11 <0> d          -1.718   1.578  -1.361  0.00  0.00     0.034 H 
ATOM     22  H12 <0> d           1.667   3.927  -0.159  0.00  0.00     0.037 H 
ATOM     23  H13 <0> d           1.640   3.073  -1.738  0.00  0.00     0.037 H 
ENDROOT
BRANCH  13  24
ATOM     24  O1  <0> d           2.314   0.934  -0.701  0.00  0.00    -0.395 OA
ATOM     25  H14 <0> d           3.207   1.302  -0.742  0.00  0.00     0.210 HD
ENDBRANCH  13  24
TORSDOF 1
