REMARK  0 active torsions:
REMARK  status: ('A' for Active; 'I' for Inactive)
ROOT
ATOM      1  C1  <0> d          -0.016   1.357   0.009  0.00  0.00    -0.082 A 
ATOM      2  C2  <0> d           1.170   2.088   0.002  0.00  0.00    -0.081 A 
ATOM      3  C3  <0> d           2.379   1.465  -0.013  0.00  0.00    -0.056 A 
ATOM      4  C4  <0> d           2.440   0.060  -0.021  0.00  0.00     0.042 A 
ATOM      5  C5  <0> d           1.232  -0.682  -0.013  0.00  0.00    -0.007 A 
ATOM      6  C6  <0> d           0.002  -0.004   0.002  0.00  0.00    -0.071 A 
ATOM      7  C7  <0> d           1.294  -2.087  -0.021  0.00  0.00    -0.034 A 
ATOM      8  C8  <0> d           2.529  -2.680  -0.037  0.00  0.00     0.123 A 
ATOM      9  C9  <0> d           3.680  -1.887  -0.044  0.00  0.00     0.013 A 
ATOM     10  N1  <0> d           3.615  -0.578  -0.036  0.00  0.00    -0.362 N 
ATOM     11  O1  <0> d           2.635  -4.035  -0.044  0.00  0.00    -0.191 OA
ATOM     12  H1  <0> d          -0.963   1.877   0.026  0.00  0.00     0.083 H 
ATOM     13  H2  <0> d           1.129   3.168   0.008  0.00  0.00     0.083 H 
ATOM     14  H3  <0> d           3.289   2.047  -0.019  0.00  0.00     0.086 H 
ATOM     15  H4  <0> d          -0.924  -0.560   0.008  0.00  0.00     0.084 H 
ATOM     16  H5  <0> d           0.392  -2.682  -0.015  0.00  0.00     0.089 H 
ATOM     17  H6  <0> d           4.649  -2.365  -0.056  0.00  0.00     0.115 H 
ATOM     18  H7  <0> d           4.436  -0.061  -0.041  0.00  0.00     0.165 HD
ENDROOT
TORSDOF 0
