REMARK  3 active torsions:
REMARK  status: ('A' for Active; 'I' for Inactive)
REMARK    1  A    between atoms: C1_1  and  C2_2 
REMARK    2  A    between atoms: C3_3  and  C7_10 
REMARK    3  A    between atoms: C6_8  and  O3_9 
ROOT
ATOM      1  C2  <0> d           0.002  -0.004   0.002  0.00  0.00     0.001 A 
ATOM      2  C3  <0> d          -1.153  -0.695   0.004  0.00  0.00     0.061 A 
ATOM      3  O1  <0> d          -1.160  -2.036  -0.003  0.00  0.00    -0.280 OA
ATOM      4  C4  <0> d          -0.016  -2.741  -0.012  0.00  0.00     0.290 A 
ATOM      5  O2  <0> d          -0.052  -3.961  -0.018  0.00  0.00    -0.260 OA
ATOM      6  C5  <0> d           1.218  -2.079  -0.015  0.00  0.00     0.022 A 
ATOM      7  C6  <0> d           1.234  -0.696  -0.013  0.00  0.00     0.079 A 
ATOM      8  H4  <0> d           2.142  -2.639  -0.023  0.00  0.00     0.097 H 
ENDROOT
BRANCH   1   9
ATOM      9  C1  <0> d          -0.018   1.503   0.010  0.00  0.00    -0.046 C 
ATOM     10  H1  <0> d           1.004   1.880   0.003  0.00  0.00     0.033 H 
ATOM     11  H2  <0> d          -0.545   1.864  -0.873  0.00  0.00     0.033 H 
ATOM     12  H3  <0> d          -0.529   1.854   0.907  0.00  0.00     0.033 H 
ENDBRANCH   1   9
BRANCH   7  13
ATOM     13  O3  <0> d           2.406  -0.019  -0.021  0.00  0.00    -0.360 OA
ATOM     14  H5  <0> d           3.188  -0.587  -0.032  0.00  0.00     0.217 HD
ENDBRANCH   7  13
BRANCH   2  15
ATOM     15  C7  <0> d          -2.462   0.051   0.014  0.00  0.00    -0.031 C 
ATOM     16  H6  <0> d          -2.783   0.237  -1.011  0.00  0.00     0.036 H 
ATOM     17  H7  <0> d          -3.216  -0.545   0.528  0.00  0.00     0.036 H 
ATOM     18  H8  <0> d          -2.335   1.002   0.532  0.00  0.00     0.036 H 
ENDBRANCH   2  15
TORSDOF 3
