REMARK  9 active torsions:
REMARK  status: ('A' for Active; 'I' for Inactive)
REMARK    1  A    between atoms: C1_1  and  C2_2 
REMARK    2  A    between atoms: C2_2  and  C3_3 
REMARK    3  A    between atoms: C3_3  and  C4_4 
REMARK    4  A    between atoms: C4_4  and  C5_6 
REMARK    5  A    between atoms: C4_4  and  O2_13 
REMARK    6  A    between atoms: C5_6  and  C6_8 
REMARK    7  A    between atoms: C5_6  and  C7_9 
REMARK    8  A    between atoms: C7_9  and  C8_11 
REMARK    9  A    between atoms: C7_9  and  O1_12 
ROOT
ATOM      1  C4  <0> d          -2.143  -0.480   1.269  0.00  0.00     0.041 C 
ATOM      2  H1  <0> d          -1.557  -0.831   0.420  0.00  0.00     0.083 H 
ENDROOT
BRANCH   1   3
ATOM      3  C3  <0> d          -3.575  -1.009   1.154  0.00  0.00    -0.041 C 
ATOM      4  H9  <0> d          -4.137  -0.733   2.047  0.00  0.00     0.036 H 
ATOM      5  H10 <0> d          -4.053  -0.576   0.276  0.00  0.00     0.036 H 
BRANCH   3   6
ATOM      6  C2  <0> d          -3.546  -2.533   1.020  0.00  0.00    -0.066 C 
ATOM      7  H7  <0> d          -2.984  -2.809   0.128  0.00  0.00     0.032 H 
ATOM      8  H8  <0> d          -3.068  -2.966   1.899  0.00  0.00     0.032 H 
BRANCH   6   9
ATOM      9  C1  <0> d          -4.977  -3.062   0.906  0.00  0.00    -0.076 C 
ATOM     10  H4  <0> d          -4.957  -4.147   0.810  0.00  0.00     0.027 H 
ATOM     11  H5  <0> d          -5.539  -2.786   1.798  0.00  0.00     0.027 H 
ATOM     12  H6  <0> d          -5.455  -2.629   0.027  0.00  0.00     0.027 H 
ENDBRANCH   6   9
ENDBRANCH   3   6
ENDBRANCH   1   3
BRANCH   1  13
ATOM     13  C5  <0> d          -2.164   1.050   1.278  0.00  0.00    -0.008 C 
ATOM     14  H2  <0> d          -2.691   1.411   0.395  0.00  0.00     0.047 H 
BRANCH  13  15
ATOM     15  C6  <0> d          -2.880   1.543   2.537  0.00  0.00    -0.068 C 
ATOM     16  H11 <0> d          -3.903   1.166   2.544  0.00  0.00     0.028 H 
ATOM     17  H12 <0> d          -2.353   1.182   3.420  0.00  0.00     0.028 H 
ATOM     18  H13 <0> d          -2.895   2.633   2.542  0.00  0.00     0.028 H 
ENDBRANCH  13  15
BRANCH  13  19
ATOM     19  C7  <0> d          -0.729   1.579   1.267  0.00  0.00     0.037 C 
ATOM     20  H3  <0> d          -0.202   1.218   2.150  0.00  0.00     0.083 H 
BRANCH  19  21
ATOM     21  C8  <0> d          -0.013   1.086   0.008  0.00  0.00    -0.052 C 
ATOM     22  H14 <0> d           0.002  -0.004   0.002  0.00  0.00     0.030 H 
ATOM     23  H15 <0> d           1.010   1.463   0.000  0.00  0.00     0.030 H 
ATOM     24  H16 <0> d          -0.540   1.447  -0.875  0.00  0.00     0.030 H 
ENDBRANCH  19  21
BRANCH  19  25
ATOM     25  O1  <0> d          -0.748   3.008   1.275  0.00  0.00    -0.396 OA
ATOM     26  H17 <0> d           0.130   3.413   1.268  0.00  0.00     0.210 HD
ENDBRANCH  19  25
ENDBRANCH  13  19
ENDBRANCH   1  13
BRANCH   1  27
ATOM     27  O2  <0> d          -1.556  -0.955   2.482  0.00  0.00    -0.395 OA
ATOM     28  H18 <0> d          -2.027  -0.681   3.281  0.00  0.00     0.210 HD
ENDBRANCH   1  27
TORSDOF 9
