REMARK  0 active torsions:
REMARK  status: ('A' for Active; 'I' for Inactive)
ROOT
ATOM      1  C1  <0> d           0.332  -1.511  -1.992  0.00  0.00    -0.064 C 
ATOM      2  C2  <0> d           1.637  -0.751  -2.266  0.00  0.00    -0.063 C 
ATOM      3  C3  <0> d           2.372  -0.591  -0.937  0.00  0.00    -0.045 C 
ATOM      4  C4  <0> d           1.507   0.056   0.091  0.00  0.00     0.024 A 
ATOM      5  H1  <0> d           1.853  -0.216   1.089  0.00  0.00     0.073 H 
ATOM      6  C5  <0> d           0.002  -0.004   0.002  0.00  0.00     0.043 A 
ATOM      7  H2  <0> d          -0.450  -0.428   0.899  0.00  0.00     0.057 H 
ATOM      8  C6  <0> d          -0.621  -0.566  -1.265  0.00  0.00    -0.052 C 
ATOM      9  C7  <0> d          -0.018   1.513   0.010  0.00  0.00     0.224 A 
ATOM     10  O1  <0> d          -0.878   2.369   0.019  0.00  0.00    -0.273 OA
ATOM     11  N1  <0> d           1.334   1.503  -0.003  0.00  0.00    -0.355 N 
ATOM     12  H3  <0> d           0.536  -2.380  -1.367  0.00  0.00     0.033 H 
ATOM     13  H4  <0> d          -0.114  -1.830  -2.934  0.00  0.00     0.033 H 
ATOM     14  H5  <0> d           2.254  -1.318  -2.963  0.00  0.00     0.033 H 
ATOM     15  H6  <0> d           1.412   0.230  -2.685  0.00  0.00     0.033 H 
ATOM     16  H7  <0> d           2.683  -1.574  -0.584  0.00  0.00     0.036 H 
ATOM     17  H8  <0> d           3.257   0.026  -1.093  0.00  0.00     0.036 H 
ATOM     18  H9  <0> d          -1.529  -1.109  -1.004  0.00  0.00     0.034 H 
ATOM     19  H10 <0> d          -0.879   0.258  -1.930  0.00  0.00     0.034 H 
ATOM     20  H11 <0> d           1.980   2.224  -0.057  0.00  0.00     0.162 HD
ENDROOT
TORSDOF 0
