REMARK  6 active torsions:
REMARK  status: ('A' for Active; 'I' for Inactive)
REMARK    1  A    between atoms: C1_1  and  C2_2 
REMARK    2  A    between atoms: C2_2  and  C3_3 
REMARK    3  A    between atoms: C4_4  and  C5_5 
REMARK    4  A    between atoms: C5_5  and  C6_6 
REMARK    5  A    between atoms: C5_5  and  C7_7 
REMARK    6  A    between atoms: C5_5  and  O1_8 
ROOT
ATOM      1  C5  <0> d           1.286   1.562  -0.002  0.00  0.00     0.113 C 
ENDROOT
BRANCH   1   2
ATOM      2  C4  <0> d           2.034   1.131   1.191  0.00  0.00    -0.069 C 
ATOM      3  C3  <0> d           2.631   0.787   2.142  0.00  0.00    -0.104 C 
BRANCH   3   4
ATOM      4  C2  <0> d           3.378   0.357   3.334  0.00  0.00    -0.012 C 
ATOM      5  H4  <0> d           4.368   0.813   3.327  0.00  0.00     0.051 H 
ATOM      6  H5  <0> d           2.841   0.666   4.231  0.00  0.00     0.051 H 
BRANCH   4   7
ATOM      7  C1  <0> d           3.520  -1.167   3.325  0.00  0.00    -0.067 C 
ATOM      8  H1  <0> d           4.073  -1.486   4.208  0.00  0.00     0.028 H 
ATOM      9  H2  <0> d           2.530  -1.624   3.332  0.00  0.00     0.028 H 
ATOM     10  H3  <0> d           4.056  -1.476   2.428  0.00  0.00     0.028 H 
ENDBRANCH   4   7
ENDBRANCH   3   4
ENDBRANCH   1   2
BRANCH   1  11
ATOM     11  C6  <0> d           2.040   1.127  -1.261  0.00  0.00    -0.038 C 
ATOM     12  H6  <0> d           1.486   1.446  -2.144  0.00  0.00     0.033 H 
ATOM     13  H7  <0> d           3.029   1.584  -1.268  0.00  0.00     0.033 H 
ATOM     14  H8  <0> d           2.140   0.042  -1.268  0.00  0.00     0.033 H 
ENDBRANCH   1  11
BRANCH   1  15
ATOM     15  C7  <0> d           1.145   3.085   0.008  0.00  0.00    -0.038 C 
ATOM     16  H9  <0> d           0.608   3.395   0.904  0.00  0.00     0.033 H 
ATOM     17  H10 <0> d           2.135   3.542   0.001  0.00  0.00     0.033 H 
ATOM     18  H11 <0> d           0.591   3.404  -0.875  0.00  0.00     0.033 H 
ENDBRANCH   1  15
BRANCH   1  19
ATOM     19  O1  <0> d          -0.011   0.963   0.007  0.00  0.00    -0.378 OA
ATOM     20  H12 <0> d           0.002  -0.004   0.002  0.00  0.00     0.211 HD
ENDBRANCH   1  19
TORSDOF 6
