REMARK  3 active torsions:
REMARK  status: ('A' for Active; 'I' for Inactive)
REMARK    1  A    between atoms: C1_1  and  C2_2 
REMARK    2  A    between atoms: C3_3  and  C7_11 
REMARK    3  A    between atoms: C4_6  and  N4_10 
ROOT
ATOM      1  C2  <0> d           0.004   1.805   2.406  0.00  0.00    -0.011 A 
ATOM      2  C3  <0> d          -0.718   1.572   1.248  0.00  0.00     0.060 A 
ATOM      3  N1  <0> d          -2.020   1.779   1.225  0.00  0.00    -0.153 NA
ATOM      4  N2  <0> d          -2.675   2.187   2.250  0.00  0.00    -0.131 NA
ATOM      5  C4  <0> d          -2.084   2.442   3.409  0.00  0.00     0.165 A 
ATOM      6  C5  <0> d          -0.694   2.257   3.534  0.00  0.00     0.099 A 
ATOM      7  C6  <0> d          -0.018   2.520   4.768  0.00  0.00     0.104 C 
ATOM      8  N3  <0> d           0.518   2.729   5.748  0.00  0.00    -0.191 NA
ENDROOT
BRANCH   1   9
ATOM      9  C1  <0> d           1.493   1.581   2.453  0.00  0.00    -0.048 C 
ATOM     10  H1  <0> d           2.008   2.499   2.171  0.00  0.00     0.033 H 
ATOM     11  H2  <0> d           1.786   1.295   3.463  0.00  0.00     0.033 H 
ATOM     12  H3  <0> d           1.763   0.785   1.758  0.00  0.00     0.033 H 
ENDBRANCH   1   9
BRANCH   5  13
ATOM     13  N4  <0> d          -2.829   2.886   4.489  0.00  0.00    -0.381 N 
ATOM     14  H4  <0> d          -2.393   3.071   5.335  0.00  0.00     0.157 HD
ATOM     15  H5  <0> d          -3.787   3.012   4.399  0.00  0.00     0.157 HD
ENDBRANCH   5  13
BRANCH   2  16
ATOM     16  C7  <0> d          -0.013   1.086   0.008  0.00  0.00    -0.033 C 
ATOM     17  H6  <0> d           0.002  -0.004   0.002  0.00  0.00     0.035 H 
ATOM     18  H7  <0> d           1.010   1.463   0.000  0.00  0.00     0.035 H 
ATOM     19  H8  <0> d          -0.540   1.447  -0.875  0.00  0.00     0.035 H 
ENDBRANCH   2  16
TORSDOF 3
