REMARK  4 active torsions:
REMARK  status: ('A' for Active; 'I' for Inactive)
REMARK    1  A    between atoms: C1_1  and  C2_2 
REMARK    2  A    between atoms: C2_2  and  C3_3 
REMARK    3  A    between atoms: C2_2  and  C4_4 
REMARK    4  A    between atoms: C7_7  and  O1_10 
ROOT
ATOM      1  C4  <0> d          -1.412  -0.526   0.013  0.00  0.00     0.037 A 
ATOM      2  C5  <0> d          -2.078  -0.664   1.216  0.00  0.00    -0.056 A 
ATOM      3  C6  <0> d          -3.378  -1.145   1.218  0.00  0.00    -0.048 A 
ATOM      4  C7  <0> d          -3.964  -1.470  -0.001  0.00  0.00     0.083 A 
ATOM      5  C8  <0> d          -3.231  -1.304  -1.167  0.00  0.00     0.034 A 
ATOM      6  N1  <0> d          -1.998  -0.838  -1.126  0.00  0.00    -0.262 NA
ATOM      7  H8  <0> d          -1.592  -0.402   2.144  0.00  0.00     0.086 H 
ATOM      8  H9  <0> d          -3.922  -1.264   2.143  0.00  0.00     0.087 H 
ATOM      9  H10 <0> d          -3.677  -1.553  -2.119  0.00  0.00     0.119 H 
ENDROOT
BRANCH   1  10
ATOM     10  C2  <0> d           0.002  -0.004   0.002  0.00  0.00    -0.019 C 
ATOM     11  H4  <0> d           0.512  -0.356  -0.895  0.00  0.00     0.048 H 
BRANCH  10  12
ATOM     12  C1  <0> d          -0.019   1.526   0.010  0.00  0.00    -0.068 C 
ATOM     13  H1  <0> d           1.004   1.903   0.003  0.00  0.00     0.028 H 
ATOM     14  H2  <0> d          -0.546   1.887  -0.873  0.00  0.00     0.028 H 
ATOM     15  H3  <0> d          -0.529   1.877   0.907  0.00  0.00     0.028 H 
ENDBRANCH  10  12
BRANCH  10  16
ATOM     16  C3  <0> d           0.742  -0.511   1.242  0.00  0.00    -0.068 C 
ATOM     17  H5  <0> d           0.232  -0.159   2.138  0.00  0.00     0.028 H 
ATOM     18  H6  <0> d           0.757  -1.601   1.236  0.00  0.00     0.028 H 
ATOM     19  H7  <0> d           1.765  -0.134   1.234  0.00  0.00     0.028 H 
ENDBRANCH  10  16
ENDBRANCH   1  10
BRANCH   4  20
ATOM     20  O1  <0> d          -5.237  -1.945  -0.049  0.00  0.00    -0.359 OA
ATOM     21  H11 <0> d          -5.910  -1.257  -0.137  0.00  0.00     0.217 HD
ENDBRANCH   4  20
TORSDOF 4
