REMARK  3 active torsions:
REMARK  status: ('A' for Active; 'I' for Inactive)
REMARK    1  A    between atoms: C1_1  and  S1_2 
REMARK    2  A    between atoms: S1_2  and  C2_3 
REMARK    3  A    between atoms: C3_5  and  N3_8 
ROOT
ATOM      1  C2  <0> d           1.723  -0.222  -0.016  0.00  0.00     0.171 A 
ATOM      2  N1  <0> d           2.152   1.034  -0.013  0.00  0.00    -0.047 NA
ATOM      3  C3  <0> d           1.262   2.003   0.001  0.00  0.00     0.728 A 
ATOM      4  N2  <0> d          -0.021   1.708   0.011  0.00  0.00    -0.021 NA
ATOM      5  S2  <0> d           0.002  -0.004   0.002  0.00  0.00     0.058 SA
ENDROOT
BRANCH   1   6
ATOM      6  S1  <0> d           2.656  -1.717  -0.033  0.00  0.00    -0.105 SA
BRANCH   6   7
ATOM      7  C1  <0> d           1.310  -2.927  -0.027  0.00  0.00    -0.028 C 
ATOM      8  H1  <0> d           0.688  -2.783  -0.910  0.00  0.00     0.042 H 
ATOM      9  H2  <0> d           1.727  -3.934  -0.036  0.00  0.00     0.042 H 
ATOM     10  H3  <0> d           0.705  -2.793   0.869  0.00  0.00     0.042 H 
ENDBRANCH   6   7
ENDBRANCH   1   6
BRANCH   3  11
ATOM     11  N3  <0> d           1.675   3.335   0.004  0.00  0.00    -0.230 N 
ATOM     12  H4  <0> d           1.016   4.047   0.014  0.00  0.00     0.174 HD
ATOM     13  H5  <0> d           2.621   3.549  -0.005  0.00  0.00     0.174 HD
ENDBRANCH   3  11
TORSDOF 3
