REMARK  7 active torsions:
REMARK  status: ('A' for Active; 'I' for Inactive)
REMARK    1  A    between atoms: C1_1  and  C2_2 
REMARK    2  A    between atoms: C2_2  and  C3_3 
REMARK    3  A    between atoms: C3_3  and  C4_4 
REMARK    4  A    between atoms: C4_4  and  C5_6 
REMARK    5  A    between atoms: C4_4  and  O2_11 
REMARK    6  A    between atoms: C5_6  and  C6_7 
REMARK    7  A    between atoms: C6_7  and  C7_8 
REMARK       I    between atoms: C7_8  and  N1_10 
ROOT
ATOM      1  C4  <0> d          -1.413  -2.063   0.004  0.00  0.00     0.036 C 
ATOM      2  H1  <0> d          -0.826  -2.414  -0.845  0.00  0.00     0.082 H 
ENDROOT
BRANCH   1   3
ATOM      3  C3  <0> d          -1.433  -0.534   0.013  0.00  0.00    -0.041 C 
ATOM      4  H7  <0> d          -1.944  -0.182   0.910  0.00  0.00     0.036 H 
ATOM      5  H8  <0> d          -1.960  -0.173  -0.870  0.00  0.00     0.036 H 
BRANCH   3   6
ATOM      6  C2  <0> d           0.002  -0.004   0.002  0.00  0.00    -0.066 C 
ATOM      7  H5  <0> d           0.512  -0.356  -0.895  0.00  0.00     0.032 H 
ATOM      8  H6  <0> d           0.529  -0.365   0.885  0.00  0.00     0.032 H 
BRANCH   6   9
ATOM      9  C1  <0> d          -0.019   1.526   0.010  0.00  0.00    -0.076 C 
ATOM     10  H2  <0> d           1.004   1.903   0.003  0.00  0.00     0.027 H 
ATOM     11  H3  <0> d          -0.546   1.887  -0.873  0.00  0.00     0.027 H 
ATOM     12  H4  <0> d          -0.529   1.877   0.907  0.00  0.00     0.027 H 
ENDBRANCH   6   9
ENDBRANCH   3   6
ENDBRANCH   1   3
BRANCH   1  13
ATOM     13  C5  <0> d          -2.844  -2.592  -0.110  0.00  0.00    -0.033 C 
ATOM     14  H9  <0> d          -3.406  -2.317   0.782  0.00  0.00     0.037 H 
ATOM     15  H10 <0> d          -3.322  -2.159  -0.989  0.00  0.00     0.037 H 
BRANCH  13  16
ATOM     16  C6  <0> d          -2.815  -4.116  -0.244  0.00  0.00     0.011 C 
ATOM     17  H11 <0> d          -2.253  -4.392  -1.137  0.00  0.00     0.047 H 
ATOM     18  H12 <0> d          -2.337  -4.549   0.634  0.00  0.00     0.047 H 
BRANCH  16  19
ATOM     19  C7  <0> d          -4.225  -4.637  -0.357  0.00  0.00     0.215 C 
ATOM     20  O1  <0> d          -5.160  -3.865  -0.333  0.00  0.00    -0.274 OA
ATOM     21  N1  <0> d          -4.446  -5.960  -0.485  0.00  0.00    -0.370 N 
ATOM     22  H13 <0> d          -3.698  -6.577  -0.505  0.00  0.00     0.159 HD
ATOM     23  H14 <0> d          -5.353  -6.296  -0.558  0.00  0.00     0.159 HD
ENDBRANCH  16  19
ENDBRANCH  13  16
ENDBRANCH   1  13
BRANCH   1  24
ATOM     24  O2  <0> d          -0.825  -2.539   1.217  0.00  0.00    -0.396 OA
ATOM     25  H15 <0> d          -1.296  -2.264   2.016  0.00  0.00     0.210 HD
ENDBRANCH   1  24
TORSDOF 7
