REMARK  3 active torsions:
REMARK  status: ('A' for Active; 'I' for Inactive)
REMARK    1  A    between atoms: C3_3  and  C7_9 
REMARK    2  A    between atoms: C4_4  and  N1_8 
REMARK    3  A    between atoms: C6_6  and  O1_7 
ROOT
ATOM      1  C1  <0> d           1.964   1.895   1.264  0.00  0.00    -0.050 A 
ATOM      2  C2  <0> d           3.204   2.450   1.130  0.00  0.00    -0.062 A 
ATOM      3  C3  <0> d           3.736   2.682  -0.143  0.00  0.00     0.067 A 
ATOM      4  C4  <0> d           2.989   2.334  -1.283  0.00  0.00     0.045 A 
ATOM      5  C5  <0> d           1.733   1.766  -1.132  0.00  0.00    -0.025 A 
ATOM      6  C6  <0> d           1.223   1.544   0.138  0.00  0.00     0.067 A 
ATOM      7  H1  <0> d           1.556   1.723   2.249  0.00  0.00     0.087 H 
ATOM      8  H2  <0> d           3.773   2.716   2.009  0.00  0.00     0.085 H 
ATOM      9  H3  <0> d           1.153   1.496  -2.002  0.00  0.00     0.091 H 
ENDROOT
BRANCH   3  10
ATOM     10  C7  <0> d           5.069   3.284  -0.288  0.00  0.00     0.211 C 
ATOM     11  O2  <0> d           5.484   3.583  -1.391  0.00  0.00    -0.644 OA
ATOM     12  O3  <0> d           5.831   3.506   0.801  0.00  0.00    -0.644 OA
ENDBRANCH   3  10
BRANCH   4  13
ATOM     13  N1  <0> d           3.507   2.558  -2.552  0.00  0.00    -0.398 N 
ATOM     14  H5  <0> d           3.026   2.244  -3.334  0.00  0.00     0.156 HD
ATOM     15  H6  <0> d           4.349   3.028  -2.656  0.00  0.00     0.156 HD
ENDBRANCH   4  13
BRANCH   6  16
ATOM     16  O1  <0> d          -0.006   0.989   0.285  0.00  0.00    -0.361 OA
ATOM     17  H4  <0> d           0.002   0.023   0.334  0.00  0.00     0.217 HD
ENDBRANCH   6  16
TORSDOF 3
