REMARK  3 active torsions:
REMARK  status: ('A' for Active; 'I' for Inactive)
REMARK    1  A    between atoms: C3_3  and  C6_8 
REMARK    2  A    between atoms: C4_5  and  C5_6 
REMARK    3  A    between atoms: C5_6  and  O2_7 
ROOT
ATOM      1  C1  <0> d          -0.016   1.348   0.009  0.00  0.00    -0.049 A 
ATOM      2  C2  <0> d           1.317   1.781  -0.001  0.00  0.00    -0.041 A 
ATOM      3  C3  <0> d           2.098   0.645  -0.015  0.00  0.00     0.152 A 
ATOM      4  O1  <0> d           1.273  -0.423  -0.012  0.00  0.00    -0.306 OA
ATOM      5  C4  <0> d           0.002  -0.004   0.002  0.00  0.00     0.077 A 
ATOM      6  H1  <0> d          -0.894   1.977   0.025  0.00  0.00     0.087 H 
ATOM      7  H2  <0> d           1.664   2.804   0.001  0.00  0.00     0.088 H 
ENDROOT
BRANCH   5   8
ATOM      8  C5  <0> d          -1.213  -0.895   0.009  0.00  0.00     0.061 C 
ATOM      9  H3  <0> d          -0.975  -1.831   0.515  0.00  0.00     0.084 H 
ATOM     10  H4  <0> d          -2.027  -0.396   0.533  0.00  0.00     0.084 H 
BRANCH   8  11
ATOM     11  O2  <0> d          -1.610  -1.170  -1.336  0.00  0.00    -0.394 OA
ATOM     12  H5  <0> d          -2.388  -1.740  -1.408  0.00  0.00     0.209 HD
ENDBRANCH   8  11
ENDBRANCH   5   8
BRANCH   3  13
ATOM     13  C6  <0> d           3.559   0.605  -0.029  0.00  0.00     0.234 C 
ATOM     14  O3  <0> d           4.200   1.649  -0.030  0.00  0.00    -0.642 OA
ATOM     15  O4  <0> d           4.142  -0.472  -0.040  0.00  0.00    -0.642 OA
ENDBRANCH   3  13
TORSDOF 3
