REMARK  1 active torsions:
REMARK  status: ('A' for Active; 'I' for Inactive)
REMARK    1  A    between atoms: C3_3  and  C7_9 
ROOT
ATOM      1  C1  <0> d          -0.017   1.396   0.010  0.00  0.00    -0.059 A 
ATOM      2  C2  <0> d           1.193   2.068   0.002  0.00  0.00    -0.057 A 
ATOM      3  C3  <0> d           2.370   1.343  -0.013  0.00  0.00     0.047 A 
ATOM      4  N1  <0> d           2.358   0.024  -0.021  0.00  0.00    -0.263 NA
ATOM      5  C4  <0> d           1.234  -0.661  -0.014  0.00  0.00     0.022 A 
ATOM      6  C5  <0> d           0.002  -0.004   0.002  0.00  0.00     0.062 A 
ATOM      7  C6  <0> d          -1.221  -0.749   0.010  0.00  0.00     0.101 C 
ATOM      8  N2  <0> d          -2.191  -1.340   0.017  0.00  0.00    -0.191 NA
ATOM      9  H1  <0> d          -0.951   1.937   0.026  0.00  0.00     0.086 H 
ATOM     10  H2  <0> d           1.217   3.148   0.007  0.00  0.00     0.086 H 
ATOM     11  H3  <0> d           1.265  -1.741  -0.020  0.00  0.00     0.117 H 
ENDROOT
BRANCH   3  12
ATOM     12  C7  <0> d           3.689   2.072  -0.022  0.00  0.00     0.054 C 
ATOM     13  C8  <0> d           4.515   1.607   1.105  0.00  0.00     0.065 C 
ATOM     14  N3  <0> d           5.151   1.247   1.974  0.00  0.00    -0.197 NA
ATOM     15  H4  <0> d           4.208   1.873  -0.960  0.00  0.00     0.064 H 
ATOM     16  H5  <0> d           3.513   3.143   0.075  0.00  0.00     0.064 H 
ENDBRANCH   3  12
TORSDOF 1
