REMARK  1 active torsions:
REMARK  status: ('A' for Active; 'I' for Inactive)
REMARK    1  A    between atoms: C6_6  and  N1_7 
ROOT
ATOM      1  C1  <0> d           0.002  -0.004   0.002  0.00  0.00    -0.055 A 
ATOM      2  C2  <0> d          -0.017   1.377   0.010  0.00  0.00    -0.053 A 
ATOM      3  C3  <0> d           1.175   2.085   0.002  0.00  0.00     0.063 A 
ATOM      4  C4  <0> d           2.393   1.402  -0.013  0.00  0.00     0.065 A 
ATOM      5  C5  <0> d           2.409   0.016  -0.020  0.00  0.00    -0.030 A 
ATOM      6  C6  <0> d           1.213  -0.687  -0.013  0.00  0.00     0.028 A 
ATOM      7  N2  <0> d           3.397   2.368  -0.017  0.00  0.00    -0.306 N 
ATOM      8  H1  <0> d           4.351   2.194  -0.026  0.00  0.00     0.170 HD
ATOM      9  C7  <0> d           2.817   3.583  -0.006  0.00  0.00     0.325 A 
ATOM     10  O1  <0> d           3.414   4.644  -0.006  0.00  0.00    -0.247 OA
ATOM     11  N3  <0> d           1.478   3.447   0.006  0.00  0.00    -0.307 N 
ATOM     12  H2  <0> d           0.833   4.172   0.017  0.00  0.00     0.170 HD
ATOM     13  H3  <0> d          -0.927  -0.555   0.008  0.00  0.00     0.087 H 
ATOM     14  H4  <0> d          -0.959   1.904   0.017  0.00  0.00     0.087 H 
ATOM     15  H5  <0> d           3.349  -0.515  -0.031  0.00  0.00     0.090 H 
ENDROOT
BRANCH   6  16
ATOM     16  N1  <0> d           1.225  -2.086  -0.020  0.00  0.00    -0.399 N 
ATOM     17  H6  <0> d           0.390  -2.578  -0.015  0.00  0.00     0.156 HD
ATOM     18  H7  <0> d           2.069  -2.563  -0.030  0.00  0.00     0.156 HD
ENDBRANCH   6  16
TORSDOF 1
