REMARK  2 active torsions:
REMARK  status: ('A' for Active; 'I' for Inactive)
REMARK    1  A    between atoms: C1_1  and  O1_2 
REMARK    2  A    between atoms: O1_2  and  C2_3 
ROOT
ATOM      1  C2  <0> d           1.179   1.788   0.000  0.00  0.00     0.070 A 
ATOM      2  C3  <0> d          -0.013   1.076   0.008  0.00  0.00    -0.050 A 
ATOM      3  C4  <0> d          -1.217   1.752   0.017  0.00  0.00    -0.072 A 
ATOM      4  C5  <0> d          -1.238   3.135   0.030  0.00  0.00    -0.030 A 
ATOM      5  C6  <0> d          -0.055   3.858   0.023  0.00  0.00     0.037 A 
ATOM      6  C7  <0> d           1.160   3.171   0.008  0.00  0.00    -0.025 A 
ATOM      7  N1  <0> d          -0.293   5.233   0.033  0.00  0.00    -0.389 N 
ATOM      8  C8  <0> d          -1.735   5.495   0.048  0.00  0.00    -0.004 A 
ATOM      9  C9  <0> d          -2.396   4.107   0.047  0.00  0.00    -0.024 A 
ATOM     10  H4  <0> d           0.002  -0.004   0.002  0.00  0.00     0.087 H 
ATOM     11  H5  <0> d          -2.145   1.200   0.019  0.00  0.00     0.084 H 
ATOM     12  H6  <0> d           2.089   3.722   0.002  0.00  0.00     0.091 H 
ATOM     13  H7  <0> d           0.396   5.916   0.031  0.00  0.00     0.159 HD
ATOM     14  H8  <0> d          -2.027   6.054  -0.841  0.00  0.00     0.064 H 
ATOM     15  H9  <0> d          -2.011   6.045   0.948  0.00  0.00     0.064 H 
ATOM     16  H10 <0> d          -3.012   3.980  -0.844  0.00  0.00     0.042 H 
ATOM     17  H11 <0> d          -2.995   3.970   0.947  0.00  0.00     0.042 H 
ENDROOT
BRANCH   1  18
ATOM     18  O1  <0> d           2.365   1.126  -0.014  0.00  0.00    -0.356 OA
BRANCH  18  19
ATOM     19  C1  <0> d           2.311  -0.302  -0.021  0.00  0.00     0.010 C 
ATOM     20  H1  <0> d           1.792  -0.650   0.873  0.00  0.00     0.066 H 
ATOM     21  H2  <0> d           1.776  -0.641  -0.907  0.00  0.00     0.066 H 
ATOM     22  H3  <0> d           3.324  -0.704  -0.032  0.00  0.00     0.066 H 
ENDBRANCH  18  19
ENDBRANCH   1  18
TORSDOF 2
