REMARK  2 active torsions:
REMARK  status: ('A' for Active; 'I' for Inactive)
REMARK    1  A    between atoms: C1_1  and  C2_2 
REMARK    2  A    between atoms: C4_4  and  O1_12 
ROOT
ATOM      1  C2  <0> d          -0.742   1.585  -1.213  0.00  0.00     0.032 C 
ATOM      2  C3  <0> d          -0.877   3.067  -1.413  0.00  0.00     0.015 C 
ATOM      3  C4  <0> d          -0.879   3.429  -2.902  0.00  0.00     0.145 C 
ATOM      4  H1  <0> d          -1.295   4.428  -3.038  0.00  0.00     0.122 H 
ATOM      5  N1  <0> d          -1.708   2.450  -3.605  0.00  0.00    -0.066 N 
ATOM      6  C5  <0> d          -1.855   1.169  -3.168  0.00  0.00     0.748 A 
ATOM      7  N2  <0> d          -2.655   0.556  -4.002  0.00  0.00    -0.052 NA
ATOM      8  C6  <0> d          -3.028   1.398  -4.967  0.00  0.00     0.125 A 
ATOM      9  N3  <0> d          -2.469   2.568  -4.763  0.00  0.00    -0.147 NA
ATOM     10  N4  <0> d          -1.219   0.718  -2.047  0.00  0.00    -0.070 NA
ATOM     11  H5  <0> d          -1.811   3.404  -0.962  0.00  0.00     0.048 H 
ATOM     12  H6  <0> d          -3.686   1.155  -5.789  0.00  0.00     0.150 H 
ATOM     13  H7  <0> d          -0.043   3.571  -0.924  0.00  0.00     0.048 H 
ENDROOT
BRANCH   1  14
ATOM     14  C1  <0> d          -0.013   1.086   0.008  0.00  0.00    -0.038 C 
ATOM     15  H2  <0> d           0.002  -0.004   0.002  0.00  0.00     0.035 H 
ATOM     16  H3  <0> d           1.010   1.463   0.000  0.00  0.00     0.035 H 
ATOM     17  H4  <0> d          -0.523   1.437   0.905  0.00  0.00     0.035 H 
ENDBRANCH   1  14
BRANCH   3  18
ATOM     18  O1  <0> d           0.455   3.388  -3.411  0.00  0.00    -0.374 OA
ATOM     19  H8  <0> d           0.525   3.608  -4.350  0.00  0.00     0.212 HD
ENDBRANCH   3  18
TORSDOF 2
