REMARK  4 active torsions:
REMARK  status: ('A' for Active; 'I' for Inactive)
REMARK    1  A    between atoms: C1_1  and  C2_2 
REMARK    2  A    between atoms: C2_2  and  C3_3 
REMARK    3  A    between atoms: N3_7  and  C5_8 
REMARK    4  A    between atoms: C6_9  and  C7_10 
ROOT
ATOM      1  C3  <0> d          -0.718   1.572   1.248  0.00  0.00     0.128 A 
ATOM      2  N1  <0> d          -1.677   0.947   1.882  0.00  0.00    -0.225 NA
ATOM      3  C4  <0> d          -2.066   1.665   2.935  0.00  0.00     0.108 A 
ATOM      4  N2  <0> d          -1.358   2.763   2.987  0.00  0.00    -0.160 NA
ATOM      5  N3  <0> d          -0.468   2.724   1.901  0.00  0.00    -0.230 N 
ATOM      6  H6  <0> d          -2.842   1.385   3.633  0.00  0.00     0.149 H 
ENDROOT
BRANCH   5   7
ATOM      7  C5  <0> d           0.485   3.687   1.565  0.00  0.00     0.002 C 
ATOM      8  C6  <0> d           0.616   4.771   2.304  0.00  0.00    -0.090 C 
ATOM      9  H8  <0> d           1.353   5.516   2.044  0.00  0.00     0.078 H 
ATOM     10  H7  <0> d           1.114   3.544   0.699  0.00  0.00     0.114 H 
BRANCH   8  11
ATOM     11  C7  <0> d          -0.263   4.969   3.513  0.00  0.00    -0.058 C 
ATOM     12  H9  <0> d          -1.308   4.987   3.203  0.00  0.00     0.032 H 
ATOM     13  H10 <0> d          -0.105   4.151   4.215  0.00  0.00     0.032 H 
ATOM     14  H11 <0> d          -0.011   5.914   3.994  0.00  0.00     0.032 H 
ENDBRANCH   8  11
ENDBRANCH   5   7
BRANCH   1  15
ATOM     15  C2  <0> d          -0.013   1.086   0.008  0.00  0.00    -0.011 C 
ATOM     16  H4  <0> d           0.002  -0.004   0.002  0.00  0.00     0.044 H 
ATOM     17  H5  <0> d           1.010   1.463   0.000  0.00  0.00     0.044 H 
BRANCH  15  18
ATOM     18  C1  <0> d          -0.753   1.593  -1.232  0.00  0.00    -0.070 C 
ATOM     19  H1  <0> d          -0.767   2.683  -1.226  0.00  0.00     0.028 H 
ATOM     20  H2  <0> d          -0.242   1.241  -2.128  0.00  0.00     0.028 H 
ATOM     21  H3  <0> d          -1.775   1.215  -1.224  0.00  0.00     0.028 H 
ENDBRANCH  15  18
ENDBRANCH   1  15
TORSDOF 4
