REMARK  0 active torsions:
REMARK  status: ('A' for Active; 'I' for Inactive)
ROOT
ATOM      1  C1  <0> d           1.448   2.003  -0.001  0.00  0.00    -0.038 C 
ATOM      2  C2  <0> d           2.247   1.222   1.003  0.00  0.00    -0.103 C 
ATOM      3  C3  <0> d           1.777   0.220   1.684  0.00  0.00    -0.079 C 
ATOM      4  C4  <0> d           0.336  -0.226   1.506  0.00  0.00     0.065 C 
ATOM      5  H1  <0> d           0.149  -1.243   1.849  0.00  0.00     0.090 H 
ATOM      6  C5  <0> d           0.002  -0.004   0.002  0.00  0.00    -0.025 C 
ATOM      7  C6  <0> d          -0.019   1.553   0.011  0.00  0.00     0.036 C 
ATOM      8  H2  <0> d          -0.590   1.972  -0.818  0.00  0.00     0.056 H 
ATOM      9  C7  <0> d          -0.621   1.864   1.368  0.00  0.00     0.264 C 
ATOM     10  O1  <0> d          -1.152   2.905   1.675  0.00  0.00    -0.265 OA
ATOM     11  O2  <0> d          -0.472   0.802   2.177  0.00  0.00    -0.312 OA
ATOM     12  H3  <0> d           1.865   1.844  -0.995  0.00  0.00     0.040 H 
ATOM     13  H4  <0> d           1.501   3.064   0.244  0.00  0.00     0.040 H 
ATOM     14  H5  <0> d           3.274   1.511   1.169  0.00  0.00     0.076 H 
ATOM     15  H6  <0> d           2.416  -0.300   2.382  0.00  0.00     0.080 H 
ATOM     16  H7  <0> d          -0.972  -0.418  -0.259  0.00  0.00     0.038 H 
ATOM     17  H8  <0> d           0.788  -0.392  -0.646  0.00  0.00     0.038 H 
ENDROOT
TORSDOF 0
