REMARK  8 active torsions:
REMARK  status: ('A' for Active; 'I' for Inactive)
REMARK    1  A    between atoms: C1_1  and  C2_2 
REMARK    2  A    between atoms: C2_2  and  C3_4 
REMARK    3  A    between atoms: C2_2  and  C6_9 
REMARK    4  A    between atoms: C3_4  and  O1_5 
REMARK    5  A    between atoms: C3_4  and  O2_7 
REMARK    6  A    between atoms: O1_5  and  C4_6 
REMARK    7  A    between atoms: O2_7  and  C5_8 
REMARK    8  A    between atoms: C6_9  and  C7_11 
ROOT
ATOM      1  C2  <0> d           0.256  -0.444  -0.524  0.00  0.00     0.048 C 
ATOM      2  H1  <0> d          -0.697  -0.967  -0.598  0.00  0.00     0.058 H 
ENDROOT
BRANCH   1   3
ATOM      3  C1  <0> d           0.003   1.059  -0.388  0.00  0.00    -0.062 C 
ATOM      4  H2  <0> d           0.956   1.583  -0.315  0.00  0.00     0.028 H 
ATOM      5  H3  <0> d          -0.541   1.417  -1.262  0.00  0.00     0.028 H 
ATOM      6  H4  <0> d          -0.586   1.249   0.509  0.00  0.00     0.028 H 
ENDBRANCH   1   3
BRANCH   1   7
ATOM      7  C3  <0> d           1.020  -0.946   0.702  0.00  0.00     0.139 C 
ATOM      8  H5  <0> d           1.278  -1.996   0.566  0.00  0.00     0.130 H 
BRANCH   7   9
ATOM      9  O1  <0> d           2.215  -0.179   0.866  0.00  0.00    -0.365 OA
BRANCH   9  10
ATOM     10  C4  <0> d           3.143  -0.741   1.796  0.00  0.00     0.007 C 
ATOM     11  H6  <0> d           4.131  -0.312   1.627  0.00  0.00     0.066 H 
ATOM     12  H7  <0> d           2.819  -0.517   2.812  0.00  0.00     0.066 H 
ATOM     13  H8  <0> d           3.187  -1.821   1.658  0.00  0.00     0.066 H 
ENDBRANCH   9  10
ENDBRANCH   7   9
BRANCH   7  14
ATOM     14  O2  <0> d           0.201  -0.804   1.865  0.00  0.00    -0.365 OA
BRANCH  14  15
ATOM     15  C5  <0> d           0.546  -1.690   2.931  0.00  0.00     0.007 C 
ATOM     16  H9  <0> d           0.547  -2.716   2.564  0.00  0.00     0.066 H 
ATOM     17  H10 <0> d           1.538  -1.438   3.307  0.00  0.00     0.066 H 
ATOM     18  H11 <0> d          -0.183  -1.592   3.735  0.00  0.00     0.066 H 
ENDBRANCH  14  15
ENDBRANCH   7  14
ENDBRANCH   1   7
BRANCH   1  19
ATOM     19  C6  <0> d           1.070  -0.706  -1.765  0.00  0.00     0.131 C 
ATOM     20  O3  <0> d           2.271  -0.803  -1.690  0.00  0.00    -0.298 OA
BRANCH  19  21
ATOM     21  C7  <0> d           0.385  -0.847  -3.100  0.00  0.00    -0.021 C 
ATOM     22  H12 <0> d          -0.691  -0.730  -2.971  0.00  0.00     0.037 H 
ATOM     23  H13 <0> d           0.754  -0.080  -3.781  0.00  0.00     0.037 H 
ATOM     24  H14 <0> d           0.596  -1.833  -3.514  0.00  0.00     0.037 H 
ENDBRANCH  19  21
ENDBRANCH   1  19
TORSDOF 8
