REMARK  4 active torsions:
REMARK  status: ('A' for Active; 'I' for Inactive)
REMARK    1  A    between atoms: C1_1  and  C2_2 
REMARK    2  A    between atoms: C3_3  and  C4_4 
REMARK    3  A    between atoms: C4_4  and  C5_6 
REMARK    4  A    between atoms: C4_4  and  O1_8 
ROOT
ATOM      1  C5  <0> d          -0.702   1.560   1.219  0.00  0.00    -0.082 C 
ATOM      2  C6  <0> d          -1.251   1.939   2.185  0.00  0.00    -0.151 C 
ATOM      3  H7  <0> d          -1.743   2.278   3.049  0.00  0.00     0.166 H 
ENDROOT
BRANCH   1   4
ATOM      4  C4  <0> d          -0.013   1.086   0.008  0.00  0.00     0.109 C 
ATOM      5  H1  <0> d           0.002  -0.004   0.002  0.00  0.00     0.109 H 
BRANCH   4   6
ATOM      6  C3  <0> d           1.401   1.607  -0.003  0.00  0.00    -0.069 C 
ATOM      7  C2  <0> d           2.408   0.770  -0.017  0.00  0.00    -0.107 C 
ATOM      8  H5  <0> d           2.225  -0.295  -0.021  0.00  0.00     0.075 H 
ATOM      9  H6  <0> d           1.584   2.672   0.001  0.00  0.00     0.081 H 
BRANCH   7  10
ATOM     10  C1  <0> d           3.822   1.291  -0.028  0.00  0.00    -0.060 C 
ATOM     11  H2  <0> d           3.994   1.895   0.864  0.00  0.00     0.032 H 
ATOM     12  H3  <0> d           4.519   0.453  -0.039  0.00  0.00     0.032 H 
ATOM     13  H4  <0> d           3.977   1.904  -0.916  0.00  0.00     0.032 H 
ENDBRANCH   7  10
ENDBRANCH   4   6
BRANCH   4  14
ATOM     14  O1  <0> d          -0.704   1.559  -1.150  0.00  0.00    -0.380 OA
ATOM     15  H8  <0> d          -0.756   2.523  -1.210  0.00  0.00     0.211 HD
ENDBRANCH   4  14
ENDBRANCH   1   4
TORSDOF 4
