REMARK  0 active torsions:
REMARK  status: ('A' for Active; 'I' for Inactive)
ROOT
ATOM      1  C1  <0> d           1.160   2.038   0.002  0.00  0.00    -0.045 A 
ATOM      2  C2  <0> d          -0.016   1.315   0.009  0.00  0.00     0.007 A 
ATOM      3  N1  <0> d           0.002  -0.004   0.002  0.00  0.00    -0.233 NA
ATOM      4  C3  <0> d           1.135  -0.683  -0.012  0.00  0.00     0.211 A 
ATOM      5  C4  <0> d           2.353  -0.026  -0.021  0.00  0.00    -0.006 A 
ATOM      6  C5  <0> d           2.372   1.361  -0.013  0.00  0.00     0.039 A 
ATOM      7 Cl1  <0> d           3.876   2.229  -0.024  0.00  0.00    -0.084 Cl
ATOM      8  F1  <0> d           1.104  -2.034  -0.019  0.00  0.00    -0.184 F 
ATOM      9  H1  <0> d           1.138   3.118   0.008  0.00  0.00     0.088 H 
ATOM     10  H2  <0> d          -0.962   1.836   0.017  0.00  0.00     0.114 H 
ATOM     11  H3  <0> d           3.277  -0.586  -0.033  0.00  0.00     0.093 H 
ENDROOT
TORSDOF 0
