REMARK  4 active torsions:
REMARK  status: ('A' for Active; 'I' for Inactive)
REMARK    1  A    between atoms: C1_1  and  C2_2 
REMARK    2  A    between atoms: C2_2  and  C3_3 
REMARK    3  A    between atoms: C3_3  and  O1_4 
REMARK    4  A    between atoms: O1_4  and  C4_5 
ROOT
ATOM      1  C4  <0> d           1.433  -2.518   2.355  0.00  0.00     0.097 C 
ATOM      2  C5  <0> d           1.394  -3.986   2.247  0.00  0.00     0.085 C 
ATOM      3  N1  <0> d           1.363  -5.118   2.163  0.00  0.00    -0.195 NA
ATOM      4  H8  <0> d           2.470  -2.183   2.370  0.00  0.00     0.097 H 
ATOM      5  H9  <0> d           0.937  -2.208   3.275  0.00  0.00     0.097 H 
ENDROOT
BRANCH   1   6
ATOM      6  O1  <0> d           0.761  -1.940   1.234  0.00  0.00    -0.377 OA
BRANCH   6   7
ATOM      7  C3  <0> d           0.742  -0.511   1.242  0.00  0.00     0.020 C 
ATOM      8  H6  <0> d           1.765  -0.134   1.234  0.00  0.00     0.074 H 
ATOM      9  H7  <0> d           0.232  -0.159   2.138  0.00  0.00     0.074 H 
BRANCH   7  10
ATOM     10  C2  <0> d           0.002  -0.004   0.002  0.00  0.00    -0.049 C 
ATOM     11  H4  <0> d          -1.020  -0.381   0.010  0.00  0.00     0.035 H 
ATOM     12  H5  <0> d           0.512  -0.356  -0.895  0.00  0.00     0.035 H 
BRANCH  10  13
ATOM     13  C1  <0> d          -0.019   1.526   0.010  0.00  0.00    -0.075 C 
ATOM     14  H1  <0> d           1.004   1.903   0.003  0.00  0.00     0.027 H 
ATOM     15  H2  <0> d          -0.546   1.887  -0.873  0.00  0.00     0.027 H 
ATOM     16  H3  <0> d          -0.529   1.877   0.907  0.00  0.00     0.027 H 
ENDBRANCH  10  13
ENDBRANCH   7  10
ENDBRANCH   6   7
ENDBRANCH   1   6
TORSDOF 4
