REMARK  4 active torsions:
REMARK  status: ('A' for Active; 'I' for Inactive)
REMARK    1  A    between atoms: C1_1  and  C2_2 
REMARK    2  A    between atoms: C2_2  and  C3_3 
REMARK    3  A    between atoms: C2_2  and  C4_4 
REMARK    4  A    between atoms: C2_2  and  C5_5 
ROOT
ATOM      1  C2  <0> d          -0.021   1.520   0.011  0.00  0.00    -0.006 C 
ENDROOT
BRANCH   1   2
ATOM      2  C1  <0> d          -0.001  -0.010   0.010  0.00  0.00    -0.064 C 
ATOM      3  H1  <0> d          -1.033  -0.390   0.021  0.00  0.00     0.028 H 
ATOM      4  H2  <0> d           0.533  -0.370   0.901  0.00  0.00     0.028 H 
ATOM      5  H3  <0> d           0.513  -0.369  -0.895  0.00  0.00     0.028 H 
ENDBRANCH   1   2
BRANCH   1   6
ATOM      6  C3  <0> d           1.415   2.049  -0.004  0.00  0.00    -0.064 C 
ATOM      7  H4  <0> d           1.400   3.149  -0.003  0.00  0.00     0.028 H 
ATOM      8  H5  <0> d           1.928   1.690  -0.909  0.00  0.00     0.028 H 
ATOM      9  H6  <0> d           1.948   1.689   0.887  0.00  0.00     0.028 H 
ENDBRANCH   1   6
BRANCH   1  10
ATOM     10  C4  <0> d          -0.763   2.022  -1.229  0.00  0.00    -0.064 C 
ATOM     11  H7  <0> d          -0.778   3.122  -1.228  0.00  0.00     0.028 H 
ATOM     12  H8  <0> d          -1.795   1.641  -1.218  0.00  0.00     0.028 H 
ATOM     13  H9  <0> d          -0.250   1.663  -2.134  0.00  0.00     0.028 H 
ENDBRANCH   1  10
BRANCH   1  14
ATOM     14  C5  <0> d          -0.724   2.012   1.250  0.00  0.00     0.047 A 
ATOM     15  C6  <0> d          -0.094   1.956   2.484  0.00  0.00    -0.043 A 
ATOM     16  C7  <0> d          -0.779   2.414   3.598  0.00  0.00    -0.017 A 
ATOM     17  H10 <0> d           0.834   1.595   2.580  0.00  0.00     0.088 H 
ATOM     18  N1  <0> d          -2.005   2.887   3.452  0.00  0.00    -0.329 N 
ATOM     19  H11 <0> d          -0.345   2.384   4.498  0.00  0.00     0.111 H 
ATOM     20  C8  <0> d          -2.578   2.927   2.259  0.00  0.00     0.277 A 
ATOM     21  H12 <0> d          -2.550   3.251   4.335  0.00  0.00     0.168 HD
ATOM     22  O1  <0> d          -3.835   3.418   2.146  0.00  0.00    -0.149 OA
ATOM     23  N2  <0> d          -1.950   2.502   1.174  0.00  0.00    -0.210 NA
ENDBRANCH   1  14
TORSDOF 4
