REMARK  4 active torsions:
REMARK  status: ('A' for Active; 'I' for Inactive)
REMARK    1  A    between atoms: C1_1  and  C2_2 
REMARK    2  A    between atoms: C2_2  and  C3_3 
REMARK    3  A    between atoms: C3_3  and  C4_5 
REMARK    4  A    between atoms: C3_3  and  N1_7 
ROOT
ATOM      1  C3  <0> d           1.235   3.094   0.007  0.00  0.00     0.117 C 
ATOM      2  H1  <0> d           0.727   3.482  -0.876  0.00  0.00     0.093 H 
ENDROOT
BRANCH   1   3
ATOM      3  C2  <0> d           0.546   3.625   1.266  0.00  0.00    -0.038 C 
ATOM      4  H5  <0> d           0.997   3.168   2.147  0.00  0.00     0.036 H 
ATOM      5  H6  <0> d           0.665   4.707   1.316  0.00  0.00     0.036 H 
BRANCH   3   6
ATOM      6  C1  <0> d          -0.943   3.278   1.217  0.00  0.00    -0.074 C 
ATOM      7  H2  <0> d          -1.434   3.656   2.114  0.00  0.00     0.027 H 
ATOM      8  H3  <0> d          -1.394   3.735   0.336  0.00  0.00     0.027 H 
ATOM      9  H4  <0> d          -1.063   2.196   1.166  0.00  0.00     0.027 H 
ENDBRANCH   3   6
ENDBRANCH   1   3
BRANCH   1  10
ATOM     10  C4  <0> d           1.177   1.588  -0.001  0.00  0.00     0.198 C 
ATOM     11  O1  <0> d           2.199   0.944  -0.014  0.00  0.00    -0.646 OA
ATOM     12  O2  <0> d          -0.011   0.963   0.007  0.00  0.00    -0.646 OA
ENDBRANCH   1  10
BRANCH   1  13
ATOM     13  N1  <0> d           2.634   3.529  -0.004  0.00  0.00    -0.266 N 
ATOM     14  N2  <0> d           3.140   4.663  -0.652  0.00  0.00    -0.184 NA
ATOM     15  C7  <0> d           4.429   4.718  -0.435  0.00  0.00     0.023 A 
ATOM     16  C6  <0> d           4.785   3.622   0.358  0.00  0.00    -0.048 A 
ATOM     17  H9  <0> d           5.101   5.478  -0.803  0.00  0.00     0.117 H 
ATOM     18  C5  <0> d           3.662   2.910   0.613  0.00  0.00     0.001 A 
ATOM     19  H8  <0> d           5.779   3.387   0.708  0.00  0.00     0.087 H 
ATOM     20  H7  <0> d           3.601   2.007   1.203  0.00  0.00     0.114 H 
ENDBRANCH   1  13
TORSDOF 4
