REMARK  0 active torsions:
REMARK  status: ('A' for Active; 'I' for Inactive)
ROOT
ATOM      1  C1  <0> d          -0.017   1.415   0.010  0.00  0.00    -0.000 A 
ATOM      2  C2  <0> d           1.137   2.099   0.003  0.00  0.00    -0.008 A 
ATOM      3  N1  <0> d           2.351   1.432  -0.013  0.00  0.00    -0.311 N 
ATOM      4  C3  <0> d           3.602   2.003  -0.023  0.00  0.00    -0.007 A 
ATOM      5  C4  <0> d           4.702   1.252  -0.038  0.00  0.00    -0.026 A 
ATOM      6  S1  <0> d           4.019  -0.398  -0.040  0.00  0.00    -0.062 SA
ATOM      7  C5  <0> d           2.300   0.063  -0.020  0.00  0.00     0.180 A 
ATOM      8  N2  <0> d           1.188  -0.626  -0.013  0.00  0.00    -0.185 NA
ATOM      9  C6  <0> d           0.002  -0.004   0.002  0.00  0.00     0.270 A 
ATOM     10  O1  <0> d          -1.040  -0.644   0.009  0.00  0.00    -0.266 OA
ATOM     11  H1  <0> d          -0.959   1.942   0.026  0.00  0.00     0.094 H 
ATOM     12  H2  <0> d           1.120   3.179   0.008  0.00  0.00     0.112 H 
ATOM     13  H3  <0> d           3.693   3.079  -0.018  0.00  0.00     0.113 H 
ATOM     14  H4  <0> d           5.737   1.561  -0.048  0.00  0.00     0.097 H 
ENDROOT
TORSDOF 0
