REMARK  4 active torsions:
REMARK  status: ('A' for Active; 'I' for Inactive)
REMARK    1  A    between atoms: C2_2  and  O3_12 
REMARK    2  A    between atoms: C4_5  and  O2_11 
REMARK    3  A    between atoms: C5_7  and  C6_9 
REMARK    4  A    between atoms: C6_9  and  O1_10 
ROOT
ATOM      1  C1  <0> d          -0.019   1.534   0.011  0.00  0.00    -0.034 C 
ATOM      2  C2  <0> d           1.453   1.995  -0.001  0.00  0.00     0.038 C 
ATOM      3  H1  <0> d           1.781   2.201  -1.020  0.00  0.00     0.083 H 
ATOM      4  C3  <0> d           2.232   0.792   0.586  0.00  0.00    -0.017 C 
ATOM      5  C4  <0> d           1.486  -0.425  -0.014  0.00  0.00     0.043 C 
ATOM      6  H2  <0> d           1.639  -1.309   0.604  0.00  0.00     0.083 H 
ATOM      7  C5  <0> d           0.002  -0.004   0.002  0.00  0.00    -0.006 C 
ATOM      8  H3  <0> d          -0.485  -0.389   0.898  0.00  0.00     0.047 H 
ATOM      9  H4  <0> d          -0.516   1.896   0.910  0.00  0.00     0.037 H 
ATOM     10  H5  <0> d          -0.533   1.906  -0.876  0.00  0.00     0.037 H 
ATOM     11  H6  <0> d           3.272   0.808   0.259  0.00  0.00     0.040 H 
ATOM     12  H7  <0> d           2.169   0.786   1.675  0.00  0.00     0.040 H 
ENDROOT
BRANCH   7  13
ATOM     13  C6  <0> d          -0.706  -0.531  -1.248  0.00  0.00     0.022 C 
ATOM     14  H8  <0> d          -0.269  -0.071  -2.134  0.00  0.00     0.074 H 
ATOM     15  H9  <0> d          -0.587  -1.613  -1.304  0.00  0.00     0.074 H 
BRANCH  13  16
ATOM     16  O1  <0> d          -2.096  -0.208  -1.180  0.00  0.00    -0.400 OA
ATOM     17  H10 <0> d          -2.608  -0.512  -1.941  0.00  0.00     0.209 HD
ENDBRANCH  13  16
ENDBRANCH   7  13
BRANCH   5  18
ATOM     18  O2  <0> d           1.925  -0.669  -1.352  0.00  0.00    -0.395 OA
ATOM     19  H11 <0> d           2.865  -0.882  -1.425  0.00  0.00     0.210 HD
ENDBRANCH   5  18
BRANCH   2  20
ATOM     20  O3  <0> d           1.622   3.153   0.820  0.00  0.00    -0.395 OA
ATOM     21  H12 <0> d           2.529   3.486   0.849  0.00  0.00     0.210 HD
ENDBRANCH   2  20
TORSDOF 4
