REMARK  3 active torsions:
REMARK  status: ('A' for Active; 'I' for Inactive)
REMARK    1  A    between atoms: C1_1  and  C2_2 
REMARK    2  A    between atoms: C2_2  and  O2_4 
REMARK    3  A    between atoms: O2_4  and  C3_5 
ROOT
ATOM      1  C3  <0> d          -0.019  -0.002   0.088  0.00  0.00     0.117 A 
ATOM      2  C4  <0> d           1.173  -0.705   0.012  0.00  0.00    -0.047 A 
ATOM      3  C5  <0> d           1.169  -2.084   0.097  0.00  0.00    -0.080 A 
ATOM      4  C6  <0> d          -0.025  -2.765   0.247  0.00  0.00    -0.080 A 
ATOM      5  C7  <0> d          -1.217  -2.069   0.319  0.00  0.00    -0.043 A 
ATOM      6  C8  <0> d          -1.218  -0.688   0.240  0.00  0.00     0.150 A 
ATOM      7  F1  <0> d          -2.383  -0.006   0.308  0.00  0.00    -0.203 F 
ATOM      8  H4  <0> d           2.106  -0.174  -0.109  0.00  0.00     0.087 H 
ATOM      9  H5  <0> d           2.098  -2.631   0.042  0.00  0.00     0.083 H 
ATOM     10  H6  <0> d          -0.027  -3.843   0.309  0.00  0.00     0.083 H 
ATOM     11  H7  <0> d          -2.148  -2.603   0.437  0.00  0.00     0.088 H 
ENDROOT
BRANCH   1  12
ATOM     12  O2  <0> d          -0.016   1.355   0.009  0.00  0.00    -0.276 OA
BRANCH  12  13
ATOM     13  C2  <0> d          -0.087   2.033   1.166  0.00  0.00     0.260 C 
ATOM     14  O1  <0> d          -0.052   1.439   2.218  0.00  0.00    -0.265 OA
BRANCH  13  15
ATOM     15  C1  <0> d          -0.211   3.535   1.153  0.00  0.00     0.004 C 
ATOM     16  H1  <0> d          -1.121   3.820   0.625  0.00  0.00     0.041 H 
ATOM     17  H2  <0> d          -0.255   3.905   2.177  0.00  0.00     0.041 H 
ATOM     18  H3  <0> d           0.653   3.966   0.647  0.00  0.00     0.041 H 
ENDBRANCH  13  15
ENDBRANCH  12  13
ENDBRANCH   1  12
TORSDOF 3
