REMARK  2 active torsions:
REMARK  status: ('A' for Active; 'I' for Inactive)
REMARK    1  A    between atoms: C1_1  and  C2_2 
REMARK    2  A    between atoms: C2_2  and  C3_4 
ROOT
ATOM      1  C3  <0> d           1.246   2.256   0.002  0.00  0.00     0.044 A 
ATOM      2  C4  <0> d           2.481   1.592  -0.007  0.00  0.00     0.018 A 
ATOM      3  N1  <0> d           3.591   2.309  -0.020  0.00  0.00    -0.253 NA
ATOM      4  C5  <0> d           3.548   3.627  -0.012  0.00  0.00     0.086 A 
ATOM      5  N2  <0> d           2.409   4.293   0.002  0.00  0.00    -0.253 NA
ATOM      6  C6  <0> d           1.250   3.658   0.010  0.00  0.00     0.018 A 
ATOM      7  H4  <0> d           2.524   0.513  -0.008  0.00  0.00     0.116 H 
ATOM      8  H5  <0> d           4.476   4.180  -0.018  0.00  0.00     0.146 H 
ATOM      9  H6  <0> d           0.322   4.210   0.022  0.00  0.00     0.116 H 
ENDROOT
BRANCH   1  10
ATOM     10  C2  <0> d          -0.018   1.503   0.010  0.00  0.00     0.158 C 
ATOM     11  O1  <0> d          -1.077   2.095   0.018  0.00  0.00    -0.293 OA
BRANCH  10  12
ATOM     12  C1  <0> d           0.002  -0.004   0.002  0.00  0.00    -0.017 C 
ATOM     13  H1  <0> d           1.044  -0.357  -0.005  0.00  0.00     0.038 H 
ATOM     14  H2  <0> d          -0.516  -0.373  -0.896  0.00  0.00     0.038 H 
ATOM     15  H3  <0> d          -0.507  -0.383   0.900  0.00  0.00     0.038 H 
ENDBRANCH  10  12
ENDBRANCH   1  10
TORSDOF 2
