REMARK  1 active torsions:
REMARK  status: ('A' for Active; 'I' for Inactive)
REMARK    1  A    between atoms: N1_3  and  C4_6 
ROOT
ATOM      1  C1  <0> d          -0.016   1.337   0.009  0.00  0.00     0.018 A 
ATOM      2  C2  <0> d           1.259   1.771  -0.000  0.00  0.00     0.003 A 
ATOM      3  N1  <0> d           2.056   0.658  -0.014  0.00  0.00    -0.294 N 
ATOM      4  C3  <0> d           1.240  -0.418  -0.012  0.00  0.00     0.070 A 
ATOM      5  N2  <0> d           0.002  -0.004   0.002  0.00  0.00    -0.254 NA
ATOM      6  H1  <0> d          -0.898   1.960   0.025  0.00  0.00     0.117 H 
ATOM      7  H2  <0> d           1.589   2.799   0.002  0.00  0.00     0.114 H 
ATOM      8  H3  <0> d           1.558  -1.450  -0.021  0.00  0.00     0.144 H 
ENDROOT
BRANCH   3   9
ATOM      9  C4  <0> d           3.521   0.638  -0.028  0.00  0.00     0.282 C 
ATOM     10  F1  <0> d           3.965  -0.506  -0.698  0.00  0.00    -0.191 F 
ATOM     11  F2  <0> d           3.996   1.778  -0.686  0.00  0.00    -0.191 F 
ATOM     12  H4  <0> d           3.894   0.628   0.996  0.00  0.00     0.183 H 
ENDBRANCH   3   9
TORSDOF 1
