REMARK  1 active torsions:
REMARK  status: ('A' for Active; 'I' for Inactive)
REMARK    1  A    between atoms: C3_3  and  C5_6 
ROOT
ATOM      1  C1  <0> d          -1.155   1.901   0.017  0.00  0.00    -0.059 A 
ATOM      2  C2  <0> d          -0.013   1.076   0.008  0.00  0.00    -0.044 A 
ATOM      3  C3  <0> d           1.067   1.901   0.002  0.00  0.00     0.126 A 
ATOM      4  O1  <0> d           0.623   3.173   0.013  0.00  0.00    -0.319 OA
ATOM      5  C4  <0> d          -0.720   3.176   0.026  0.00  0.00     0.019 A 
ATOM      6  H1  <0> d          -2.184   1.574   0.019  0.00  0.00     0.086 H 
ATOM      7  H2  <0> d           0.002  -0.004   0.002  0.00  0.00     0.088 H 
ATOM      8  H3  <0> d          -1.347   4.056   0.037  0.00  0.00     0.123 H 
ENDROOT
BRANCH   3   9
ATOM      9  C5  <0> d           2.483   1.477  -0.013  0.00  0.00     0.230 A 
ATOM     10  N3  <0> d           2.943   0.216  -0.018  0.00  0.00    -0.104 NA
ATOM     11  N2  <0> d           4.231   0.279  -0.034  0.00  0.00    -0.021 NA
ATOM     12  N4  <0> d           4.590   1.515  -0.032  0.00  0.00    -0.021 NA
ATOM     13  N1  <0> d           3.543   2.265  -0.019  0.00  0.00    -0.104 NA
ENDBRANCH   3   9
TORSDOF 1
