REMARK  9 active torsions:
REMARK  status: ('A' for Active; 'I' for Inactive)
REMARK    1  A    between atoms: C1_1  and  C2_2 
REMARK    2  A    between atoms: C2_2  and  C3_3 
REMARK    3  A    between atoms: C3_3  and  C5_5 
REMARK    4  A    between atoms: C5_5  and  C6_6 
REMARK    5  A    between atoms: C6_6  and  C7_7 
REMARK    6  A    between atoms: C7_7  and  C8_8 
REMARK    7  A    between atoms: C8_8  and  C9_9 
REMARK    8  A    between atoms: C8_8  and  C10_10 
REMARK    9  A    between atoms: C8_8  and  O1_11 
ROOT
ATOM      1  C6  <0> d          -1.316   3.738  -1.408  0.00  0.00    -0.059 C 
ATOM      2  H10 <0> d          -0.472   3.390  -2.004  0.00  0.00     0.033 H 
ATOM      3  H11 <0> d          -2.244   3.365  -1.840  0.00  0.00     0.033 H 
ENDROOT
BRANCH   1   4
ATOM      4  C5  <0> d          -1.176   3.222   0.025  0.00  0.00    -0.045 C 
ATOM      5  H8  <0> d          -2.020   3.571   0.621  0.00  0.00     0.039 H 
ATOM      6  H9  <0> d          -0.248   3.596   0.457  0.00  0.00     0.039 H 
BRANCH   4   7
ATOM      7  C3  <0> d          -1.156   1.715   0.017  0.00  0.00    -0.090 C 
ATOM      8  C4  <0> d          -0.013   1.076   0.008  0.00  0.00    -0.119 C 
ATOM      9  H6  <0> d           0.002  -0.004   0.002  0.00  0.00     0.067 H 
ATOM     10  H7  <0> d           0.915   1.629   0.002  0.00  0.00     0.067 H 
BRANCH   7  11
ATOM     11  C2  <0> d          -2.451   0.944   0.019  0.00  0.00    -0.049 C 
ATOM     12  H4  <0> d          -3.196   1.485  -0.564  0.00  0.00     0.039 H 
ATOM     13  H5  <0> d          -2.288  -0.040  -0.422  0.00  0.00     0.039 H 
BRANCH  11  14
ATOM     14  C1  <0> d          -2.946   0.783   1.457  0.00  0.00    -0.073 C 
ATOM     15  H1  <0> d          -2.201   0.243   2.040  0.00  0.00     0.028 H 
ATOM     16  H2  <0> d          -3.109   1.767   1.898  0.00  0.00     0.028 H 
ATOM     17  H3  <0> d          -3.883   0.226   1.459  0.00  0.00     0.028 H 
ENDBRANCH  11  14
ENDBRANCH   7  11
ENDBRANCH   4   7
ENDBRANCH   1   4
BRANCH   1  18
ATOM     18  C7  <0> d          -1.337   5.268  -1.400  0.00  0.00    -0.037 C 
ATOM     19  H12 <0> d          -2.180   5.617  -0.805  0.00  0.00     0.037 H 
ATOM     20  H13 <0> d          -0.408   5.642  -0.968  0.00  0.00     0.037 H 
BRANCH  18  21
ATOM     21  C8  <0> d          -1.476   5.784  -2.834  0.00  0.00     0.051 C 
BRANCH  21  22
ATOM     22  C9  <0> d          -2.779   5.260  -3.440  0.00  0.00    -0.048 C 
ATOM     23  H14 <0> d          -3.623   5.608  -2.845  0.00  0.00     0.031 H 
ATOM     24  H15 <0> d          -2.878   5.627  -4.461  0.00  0.00     0.031 H 
ATOM     25  H16 <0> d          -2.764   4.170  -3.446  0.00  0.00     0.031 H 
ENDBRANCH  21  22
BRANCH  21  26
ATOM     26  C10 <0> d          -1.497   7.314  -2.825  0.00  0.00    -0.048 C 
ATOM     27  H17 <0> d          -0.568   7.688  -2.393  0.00  0.00     0.031 H 
ATOM     28  H18 <0> d          -1.596   7.682  -3.846  0.00  0.00     0.031 H 
ATOM     29  H19 <0> d          -2.341   7.663  -2.230  0.00  0.00     0.031 H 
ENDBRANCH  21  26
BRANCH  21  30
ATOM     30  O1  <0> d          -0.370   5.327  -3.614  0.00  0.00    -0.391 OA
ATOM     31  H20 <0> d           0.491   5.622  -3.287  0.00  0.00     0.210 HD
ENDBRANCH  21  30
ENDBRANCH  18  21
ENDBRANCH   1  18
TORSDOF 9
