REMARK  4 active torsions:
REMARK  status: ('A' for Active; 'I' for Inactive)
REMARK    1  A    between atoms: C1_1  and  C2_2 
REMARK    2  A    between atoms: C2_2  and  C3_3 
REMARK    3  A    between atoms: C6_6  and  O2_10 
REMARK    4  A    between atoms: C8_8  and  O1_9 
ROOT
ATOM      1  C3  <0> d          -1.412  -0.526   0.013  0.00  0.00    -0.025 A 
ATOM      2  C4  <0> d          -2.014  -0.864   1.210  0.00  0.00    -0.072 A 
ATOM      3  C5  <0> d          -3.310  -1.342   1.223  0.00  0.00    -0.050 A 
ATOM      4  C6  <0> d          -4.010  -1.484   0.033  0.00  0.00     0.068 A 
ATOM      5  C7  <0> d          -3.409  -1.146  -1.169  0.00  0.00    -0.019 A 
ATOM      6  C8  <0> d          -2.110  -0.661  -1.179  0.00  0.00     0.074 A 
ATOM      7  H6  <0> d          -1.470  -0.754   2.137  0.00  0.00     0.084 H 
ATOM      8  H7  <0> d          -3.778  -1.606   2.160  0.00  0.00     0.087 H 
ATOM      9  H8  <0> d          -3.952  -1.256  -2.096  0.00  0.00     0.092 H 
ENDROOT
BRANCH   1  10
ATOM     10  C2  <0> d           0.002  -0.004   0.002  0.00  0.00    -0.042 C 
ATOM     11  H4  <0> d           0.512  -0.356  -0.895  0.00  0.00     0.039 H 
ATOM     12  H5  <0> d           0.529  -0.365   0.885  0.00  0.00     0.039 H 
BRANCH  10  13
ATOM     13  C1  <0> d          -0.019   1.526   0.010  0.00  0.00    -0.073 C 
ATOM     14  H1  <0> d           1.004   1.903   0.003  0.00  0.00     0.028 H 
ATOM     15  H2  <0> d          -0.546   1.887  -0.873  0.00  0.00     0.028 H 
ATOM     16  H3  <0> d          -0.529   1.877   0.907  0.00  0.00     0.028 H 
ENDBRANCH  10  13
ENDBRANCH   1  10
BRANCH   6  17
ATOM     17  O1  <0> d          -1.519  -0.323  -2.355  0.00  0.00    -0.360 OA
ATOM     18  H9  <0> d          -1.044  -1.050  -2.780  0.00  0.00     0.217 HD
ENDBRANCH   6  17
BRANCH   4  19
ATOM     19  O2  <0> d          -5.285  -1.956   0.047  0.00  0.00    -0.361 OA
ATOM     20  H10 <0> d          -5.958  -1.266   0.131  0.00  0.00     0.217 HD
ENDBRANCH   4  19
TORSDOF 4
