REMARK  2 active torsions:
REMARK  status: ('A' for Active; 'I' for Inactive)
REMARK    1  A    between atoms: C7_7  and  O2_13 
REMARK    2  A    between atoms: C9_10  and  O1_12 
ROOT
ATOM      1  C1  <0> d          -2.233   2.327  -2.896  0.00  0.00    -0.082 A 
ATOM      2  C2  <0> d          -1.217   2.628  -3.784  0.00  0.00    -0.082 A 
ATOM      3  C3  <0> d           0.100   2.425  -3.419  0.00  0.00    -0.074 A 
ATOM      4  C4  <0> d           0.404   1.921  -2.168  0.00  0.00    -0.021 A 
ATOM      5  C5  <0> d          -0.614   1.619  -1.280  0.00  0.00    -0.021 A 
ATOM      6  C6  <0> d          -1.931   1.823  -1.646  0.00  0.00    -0.074 A 
ATOM      7  C7  <0> d          -0.013   1.086   0.008  0.00  0.00     0.064 C 
ATOM      8  H1  <0> d           0.002  -0.004   0.002  0.00  0.00     0.090 H 
ATOM      9  C8  <0> d           1.432   1.652  -0.003  0.00  0.00    -0.009 C 
ATOM     10  C9  <0> d           1.741   1.606  -1.523  0.00  0.00     0.064 C 
ATOM     11  H2  <0> d           2.482   2.362  -1.786  0.00  0.00     0.090 H 
ATOM     12  H3  <0> d          -3.263   2.485  -3.181  0.00  0.00     0.083 H 
ATOM     13  H4  <0> d          -1.452   3.022  -4.761  0.00  0.00     0.083 H 
ATOM     14  H5  <0> d           0.894   2.661  -4.112  0.00  0.00     0.084 H 
ATOM     15  H6  <0> d          -2.726   1.588  -0.953  0.00  0.00     0.084 H 
ATOM     16  H7  <0> d           1.459   2.674   0.375  0.00  0.00     0.041 H 
ATOM     17  H8  <0> d           2.112   1.009   0.558  0.00  0.00     0.041 H 
ENDROOT
BRANCH   7  18
ATOM     18  O2  <0> d          -0.734   1.571   1.142  0.00  0.00    -0.391 OA
ATOM     19  H10 <0> d          -1.654   1.274   1.180  0.00  0.00     0.210 HD
ENDBRANCH   7  18
BRANCH  10  20
ATOM     20  O1  <0> d           2.194   0.306  -1.905  0.00  0.00    -0.391 OA
ATOM     21  H9  <0> d           2.402   0.223  -2.846  0.00  0.00     0.210 HD
ENDBRANCH  10  20
TORSDOF 2
