REMARK  2 active torsions:
REMARK  status: ('A' for Active; 'I' for Inactive)
REMARK    1  A    between atoms: C1_1  and  C2_2 
REMARK    2  A    between atoms: C2_2  and  C3_3 
ROOT
ATOM      1  C2  <0> d           0.002  -0.004   0.002  0.00  0.00    -0.005 C 
ATOM      2  H4  <0> d          -1.020  -0.381   0.010  0.00  0.00     0.044 H 
ATOM      3  H5  <0> d           0.512  -0.356  -0.895  0.00  0.00     0.044 H 
ENDROOT
BRANCH   1   4
ATOM      4  C1  <0> d          -0.019   1.526   0.010  0.00  0.00    -0.069 C 
ATOM      5  H1  <0> d           1.004   1.903   0.003  0.00  0.00     0.028 H 
ATOM      6  H2  <0> d          -0.546   1.887  -0.873  0.00  0.00     0.028 H 
ATOM      7  H3  <0> d          -0.529   1.877   0.907  0.00  0.00     0.028 H 
ENDBRANCH   1   4
BRANCH   1   8
ATOM      8  C3  <0> d           0.731  -0.503   1.223  0.00  0.00     0.173 A 
ATOM      9  O1  <0> d           2.045  -0.748   1.307  0.00  0.00    -0.195 OA
ATOM     10  N2  <0> d           2.282  -1.195   2.633  0.00  0.00    -0.093 NA
ATOM     11  C4  <0> d           1.126  -1.197   3.236  0.00  0.00     0.251 A 
ATOM     12  N1  <0> d           0.190  -0.777   2.377  0.00  0.00    -0.194 NA
ATOM     13 Cl1  <0> d           0.848  -1.666   4.884  0.00  0.00    -0.039 Cl
ENDBRANCH   1   8
TORSDOF 2
