REMARK  5 active torsions:
REMARK  status: ('A' for Active; 'I' for Inactive)
REMARK    1  A    between atoms: C1_1  and  C2_2 
REMARK    2  A    between atoms: C2_2  and  C3_4 
REMARK    3  A    between atoms: C2_2  and  C9_10 
REMARK    4  A    between atoms: C9_10  and  C10_12 
REMARK    5  A    between atoms: C9_10  and  O1_13 
ROOT
ATOM      1  C3  <0> d          -1.466   3.603   2.534  0.00  0.00    -0.049 C 
ATOM      2  C4  <0> d          -2.901   3.073   2.545  0.00  0.00    -0.061 C 
ATOM      3  C5  <0> d          -3.617   3.566   3.804  0.00  0.00    -0.065 C 
ATOM      4  C6  <0> d          -3.638   5.096   3.812  0.00  0.00    -0.065 C 
ATOM      5  C7  <0> d          -2.203   5.626   3.801  0.00  0.00    -0.065 C 
ATOM      6  C8  <0> d          -1.486   5.132   2.542  0.00  0.00    -0.061 C 
ATOM      7  H6  <0> d          -0.934   3.238   3.425  0.00  0.00     0.040 H 
ATOM      8  H7  <0> d          -3.433   3.437   1.654  0.00  0.00     0.033 H 
ATOM      9  H8  <0> d          -2.886   1.973   2.539  0.00  0.00     0.033 H 
ATOM     10  H9  <0> d          -4.649   3.186   3.811  0.00  0.00     0.033 H 
ATOM     11  H10 <0> d          -3.085   3.202   4.695  0.00  0.00     0.033 H 
ATOM     12  H11 <0> d          -4.170   5.461   2.921  0.00  0.00     0.033 H 
ATOM     13  H12 <0> d          -4.153   5.451   4.717  0.00  0.00     0.033 H 
ATOM     14  H13 <0> d          -2.217   6.726   3.807  0.00  0.00     0.033 H 
ATOM     15  H14 <0> d          -1.671   5.261   4.692  0.00  0.00     0.033 H 
ATOM     16  H15 <0> d          -0.455   5.513   2.535  0.00  0.00     0.033 H 
ATOM     17  H16 <0> d          -2.018   5.497   1.651  0.00  0.00     0.033 H 
ENDROOT
BRANCH   1  18
ATOM     18  C2  <0> d          -0.750   3.109   1.275  0.00  0.00    -0.030 C 
ATOM     19  H1  <0> d          -1.282   3.474   0.384  0.00  0.00     0.043 H 
BRANCH  18  20
ATOM     20  C1  <0> d           0.686   3.639   1.264  0.00  0.00    -0.070 C 
ATOM     21  H3  <0> d           1.201   3.284   0.359  0.00  0.00     0.028 H 
ATOM     22  H4  <0> d           1.218   3.274   2.156  0.00  0.00     0.028 H 
ATOM     23  H5  <0> d           0.671   4.739   1.270  0.00  0.00     0.028 H 
ENDBRANCH  18  20
BRANCH  18  24
ATOM     24  C9  <0> d          -0.729   1.579   1.267  0.00  0.00     0.035 C 
ATOM     25  H2  <0> d          -1.746   1.166   1.335  0.00  0.00     0.082 H 
BRANCH  24  26
ATOM     26  C10 <0> d          -0.013   1.086   0.008  0.00  0.00    -0.052 C 
ATOM     27  H17 <0> d           0.002  -0.014   0.002  0.00  0.00     0.030 H 
ATOM     28  H18 <0> d           1.019   1.467   0.000  0.00  0.00     0.030 H 
ATOM     29  H19 <0> d          -0.545   1.450  -0.883  0.00  0.00     0.030 H 
ENDBRANCH  24  26
BRANCH  24  30
ATOM     30  O1  <0> d          -0.038   1.106   2.425  0.00  0.00    -0.396 OA
ATOM     31  H20 <0> d           0.079   0.025   2.592  0.00  0.00     0.210 HD
ENDBRANCH  24  30
ENDBRANCH  18  24
ENDBRANCH   1  18
TORSDOF 5
