REMARK  4 active torsions:
REMARK  status: ('A' for Active; 'I' for Inactive)
REMARK    1  A    between atoms: C1_1  and  O1_2 
REMARK    2  A    between atoms: O1_2  and  C2_3 
REMARK    3  A    between atoms: C2_3  and  C3_5 
REMARK    4  A    between atoms: C5_7  and  O3_11 
ROOT
ATOM      1  C3  <0> d           0.658  -2.076  -1.122  0.00  0.00     0.059 A 
ATOM      2  C4  <0> d           1.283  -2.709  -2.204  0.00  0.00    -0.032 A 
ATOM      3  C5  <0> d           1.310  -4.097  -2.226  0.00  0.00     0.084 A 
ATOM      4  C6  <0> d           0.722  -4.803  -1.185  0.00  0.00     0.034 A 
ATOM      5  N1  <0> d           0.142  -4.175  -0.180  0.00  0.00    -0.269 NA
ATOM      6  C7  <0> d           0.097  -2.861  -0.113  0.00  0.00     0.018 A 
ATOM      7  H4  <0> d           1.731  -2.133  -2.999  0.00  0.00     0.089 H 
ATOM      8  H5  <0> d           0.740  -5.883  -1.197  0.00  0.00     0.119 H 
ATOM      9  H6  <0> d          -0.383  -2.385   0.729  0.00  0.00     0.116 H 
ENDROOT
BRANCH   1  10
ATOM     10  C2  <0> d           0.601  -0.602  -1.046  0.00  0.00     0.294 C 
ATOM     11  O2  <0> d           1.092   0.071  -1.930  0.00  0.00    -0.259 OA
BRANCH  10  12
ATOM     12  O1  <0> d           0.002  -0.004   0.002  0.00  0.00    -0.322 OA
BRANCH  12  13
ATOM     13  C1  <0> d          -0.017   1.425   0.010  0.00  0.00     0.013 C 
ATOM     14  H1  <0> d           1.005   1.802   0.002  0.00  0.00     0.067 H 
ATOM     15  H2  <0> d          -0.544   1.786  -0.873  0.00  0.00     0.067 H 
ATOM     16  H3  <0> d          -0.527   1.776   0.907  0.00  0.00     0.067 H 
ENDBRANCH  12  13
ENDBRANCH  10  12
ENDBRANCH   1  10
BRANCH   3  17
ATOM     17  O3  <0> d           1.904  -4.757  -3.255  0.00  0.00    -0.359 OA
ATOM     18  H7  <0> d           2.843  -4.940  -3.115  0.00  0.00     0.217 HD
ENDBRANCH   3  17
TORSDOF 4
