REMARK  3 active torsions:
REMARK  status: ('A' for Active; 'I' for Inactive)
REMARK    1  A    between atoms: C1_1  and  C2_2 
REMARK    2  A    between atoms: C2_2  and  C10_13 
REMARK    3  A    between atoms: C5_6  and  C8_11 
ROOT
ATOM      1  C2  <0> d           0.002  -0.004   0.002  0.00  0.00    -0.040 C 
ATOM      2  C3  <0> d          -1.186  -0.661   0.750  0.00  0.00    -0.046 C 
ATOM      3  H1  <0> d          -2.206  -0.313   0.582  0.00  0.00     0.041 H 
ATOM      4  C4  <0> d          -0.894  -2.191   0.587  0.00  0.00    -0.054 C 
ATOM      5  C5  <0> d           0.637  -2.184   0.881  0.00  0.00    -0.034 C 
ATOM      6  H2  <0> d           1.211  -2.521   0.018  0.00  0.00     0.046 H 
ATOM      7  C6  <0> d           0.832  -0.635   1.149  0.00  0.00    -0.040 C 
ATOM      8  H3  <0> d           1.835  -0.271   1.371  0.00  0.00     0.042 H 
ATOM      9  C7  <0> d          -0.388  -0.144   1.986  0.00  0.00    -0.056 C 
ATOM     10  H7  <0> d          -1.438  -2.782   1.324  0.00  0.00     0.034 H 
ATOM     11  H8  <0> d          -1.103  -2.532  -0.427  0.00  0.00     0.034 H 
ATOM     12  H9  <0> d          -0.429   0.936   2.128  0.00  0.00     0.034 H 
ATOM     13  H10 <0> d          -0.561  -0.709   2.901  0.00  0.00     0.034 H 
ENDROOT
BRANCH   1  14
ATOM     14  C1  <0> d          -0.019   1.526   0.010  0.00  0.00    -0.069 C 
ATOM     15  H4  <0> d           1.002   1.903   0.074  0.00  0.00     0.028 H 
ATOM     16  H5  <0> d          -0.483   1.888  -0.907  0.00  0.00     0.028 H 
ATOM     17  H6  <0> d          -0.590   1.877   0.870  0.00  0.00     0.028 H 
ENDBRANCH   1  14
BRANCH   1  18
ATOM     18  C10 <0> d           0.286  -0.598  -1.379  0.00  0.00    -0.069 C 
ATOM     19  H14 <0> d           1.321  -0.398  -1.655  0.00  0.00     0.028 H 
ATOM     20  H15 <0> d           0.118  -1.675  -1.353  0.00  0.00     0.028 H 
ATOM     21  H16 <0> d          -0.380  -0.144  -2.113  0.00  0.00     0.028 H 
ENDBRANCH   1  18
BRANCH   5  22
ATOM     22  C8  <0> d           0.967  -2.997   2.107  0.00  0.00    -0.108 C 
ATOM     23  C9  <0> d           1.794  -4.009   2.019  0.00  0.00    -0.124 C 
ATOM     24  H12 <0> d           2.239  -4.261   1.068  0.00  0.00     0.066 H 
ATOM     25  H13 <0> d           2.030  -4.591   2.897  0.00  0.00     0.066 H 
ATOM     26  H11 <0> d           0.522  -2.744   3.058  0.00  0.00     0.076 H 
ENDBRANCH   5  22
TORSDOF 3
