REMARK  5 active torsions:
REMARK  status: ('A' for Active; 'I' for Inactive)
REMARK    1  A    between atoms: C1_1  and  C2_2 
REMARK    2  A    between atoms: C7_7  and  O1_8 
REMARK    3  A    between atoms: O1_8  and  C8_9 
REMARK    4  A    between atoms: C8_9  and  O2_10 
REMARK    5  A    between atoms: O2_10  and  C9_11 
ROOT
ATOM      1  C2  <0> d          -1.189  -0.715   0.010  0.00  0.00    -0.029 A 
ATOM      2  C3  <0> d          -1.167  -2.096   0.002  0.00  0.00    -0.075 A 
ATOM      3  C4  <0> d           0.040  -2.770  -0.013  0.00  0.00    -0.082 A 
ATOM      4  C5  <0> d           1.228  -2.064  -0.021  0.00  0.00    -0.080 A 
ATOM      5  C6  <0> d           1.212  -0.682  -0.019  0.00  0.00    -0.050 A 
ATOM      6  C7  <0> d           0.002  -0.004   0.002  0.00  0.00     0.077 A 
ATOM      7  H4  <0> d          -2.095  -2.651   0.007  0.00  0.00     0.084 H 
ATOM      8  H5  <0> d           0.054  -3.850  -0.019  0.00  0.00     0.083 H 
ATOM      9  H6  <0> d           2.170  -2.592  -0.033  0.00  0.00     0.083 H 
ATOM     10  H7  <0> d           2.141  -0.131  -0.030  0.00  0.00     0.087 H 
ENDROOT
BRANCH   6  11
ATOM     11  O1  <0> d          -0.016   1.355   0.009  0.00  0.00    -0.326 OA
BRANCH  11  12
ATOM     12  C8  <0> d           1.248   2.021   0.001  0.00  0.00     0.108 C 
ATOM     13  H8  <0> d           1.109   3.067   0.274  0.00  0.00     0.118 H 
ATOM     14  H9  <0> d           1.915   1.543   0.719  0.00  0.00     0.118 H 
BRANCH  12  15
ATOM     15  O2  <0> d           1.819   1.941  -1.306  0.00  0.00    -0.371 OA
BRANCH  15  16
ATOM     16  C9  <0> d           1.212   2.815  -2.260  0.00  0.00     0.006 C 
ATOM     17  H10 <0> d           0.154   2.569  -2.356  0.00  0.00     0.066 H 
ATOM     18  H11 <0> d           1.316   3.847  -1.926  0.00  0.00     0.066 H 
ATOM     19  H12 <0> d           1.702   2.695  -3.227  0.00  0.00     0.066 H 
ENDBRANCH  15  16
ENDBRANCH  12  15
ENDBRANCH  11  12
ENDBRANCH   6  11
BRANCH   1  20
ATOM     20  C1  <0> d          -2.505   0.019   0.025  0.00  0.00    -0.049 C 
ATOM     21  H1  <0> d          -2.832   0.201  -0.998  0.00  0.00     0.033 H 
ATOM     22  H2  <0> d          -3.251  -0.584   0.543  0.00  0.00     0.033 H 
ATOM     23  H3  <0> d          -2.384   0.970   0.543  0.00  0.00     0.033 H 
ENDBRANCH   1  20
TORSDOF 5
