REMARK  2 active torsions:
REMARK  status: ('A' for Active; 'I' for Inactive)
REMARK    1  A    between atoms: C1_1  and  C2_2 
REMARK    2  A    between atoms: C2_2  and  C4_4 
ROOT
ATOM      1  C4  <0> d          -0.018   1.474   0.010  0.00  0.00    -0.031 A 
ATOM      2  C5  <0> d          -1.234   2.158   0.020  0.00  0.00    -0.073 A 
ATOM      3  C6  <0> d          -1.246   3.538   0.033  0.00  0.00    -0.082 A 
ATOM      4  C7  <0> d          -0.056   4.243   0.025  0.00  0.00    -0.083 A 
ATOM      5  C8  <0> d           1.153   3.570   0.010  0.00  0.00    -0.082 A 
ATOM      6  C9  <0> d           1.179   2.191   0.003  0.00  0.00    -0.073 A 
ATOM      7  H6  <0> d          -2.164   1.609   0.021  0.00  0.00     0.084 H 
ATOM      8  H7  <0> d          -2.186   4.068   0.044  0.00  0.00     0.083 H 
ATOM      9  H8  <0> d          -0.070   5.323   0.030  0.00  0.00     0.083 H 
ATOM     10  H9  <0> d           2.079   4.127   0.004  0.00  0.00     0.083 H 
ATOM     11  H10 <0> d           2.123   1.667  -0.009  0.00  0.00     0.084 H 
ENDROOT
BRANCH   1  12
ATOM     12  C2  <0> d           0.002  -0.004   0.002  0.00  0.00    -0.061 C 
ATOM     13  C3  <0> d           0.506  -0.666   1.034  0.00  0.00    -0.115 C 
ATOM     14  H4  <0> d           0.902  -0.125   1.881  0.00  0.00     0.067 H 
ATOM     15  H5  <0> d           0.521  -1.746   1.028  0.00  0.00     0.067 H 
BRANCH  12  16
ATOM     16  C1  <0> d          -0.550  -0.759  -1.180  0.00  0.00    -0.051 C 
ATOM     17  H1  <0> d           0.243  -0.926  -1.908  0.00  0.00     0.033 H 
ATOM     18  H2  <0> d          -0.945  -1.718  -0.846  0.00  0.00     0.033 H 
ATOM     19  H3  <0> d          -1.350  -0.178  -1.640  0.00  0.00     0.033 H 
ENDBRANCH  12  16
ENDBRANCH   1  12
TORSDOF 2
