REMARK  0 active torsions:
REMARK  status: ('A' for Active; 'I' for Inactive)
ROOT
ATOM      1  C1  <0> d          -2.305   1.379   0.032  0.00  0.00     0.020 A 
ATOM      2  C2  <0> d          -2.288  -0.018   0.025  0.00  0.00     0.021 A 
ATOM      3  N1  <0> d          -1.151  -0.678   0.010  0.00  0.00    -0.238 NA
ATOM      4  C3  <0> d           0.002  -0.004   0.002  0.00  0.00     0.180 A 
ATOM      5  C4  <0> d          -0.017   1.414   0.010  0.00  0.00     0.121 A 
ATOM      6  N2  <0> d          -1.183   2.063   0.030  0.00  0.00    -0.254 NA
ATOM      7  C5  <0> d           1.215   2.096   0.002  0.00  0.00     0.035 A 
ATOM      8  N3  <0> d           2.325   1.386  -0.012  0.00  0.00    -0.252 NA
ATOM      9  C6  <0> d           2.300   0.061  -0.019  0.00  0.00     0.088 A 
ATOM     10  N4  <0> d           1.185  -0.629  -0.013  0.00  0.00    -0.220 NA
ATOM     11  H1  <0> d          -3.249   1.902   0.045  0.00  0.00     0.117 H 
ATOM     12  H2  <0> d          -3.221  -0.563   0.031  0.00  0.00     0.117 H 
ATOM     13  H3  <0> d           1.250   3.176   0.007  0.00  0.00     0.118 H 
ATOM     14  H4  <0> d           3.239  -0.473  -0.031  0.00  0.00     0.146 H 
ENDROOT
TORSDOF 0
