REMARK  1 active torsions:
REMARK  status: ('A' for Active; 'I' for Inactive)
REMARK    1  A    between atoms: C1_1  and  C2_2 
ROOT
ATOM      1  C2  <0> d          -0.718   1.572   1.248  0.00  0.00     0.040 A 
ATOM      2  C3  <0> d          -2.088   1.793   1.237  0.00  0.00    -0.006 A 
ATOM      3  C4  <0> d          -2.697   2.230   2.395  0.00  0.00     0.072 A 
ATOM      4  N1  <0> d          -1.951   2.437   3.473  0.00  0.00    -0.244 NA
ATOM      5  C5  <0> d          -0.651   2.223   3.448  0.00  0.00     0.087 A 
ATOM      6  N2  <0> d          -0.039   1.798   2.360  0.00  0.00    -0.246 NA
ATOM      7  C6  <0> d          -4.178   2.479   2.468  0.00  0.00     0.151 C 
ATOM      8  N3  <0> d          -4.743   2.599   1.120  0.00  0.00     0.089 N 
ATOM      9  C7  <0> d          -4.360   1.440   0.298  0.00  0.00     0.116 C 
ATOM     10  C8  <0> d          -2.868   1.541  -0.024  0.00  0.00    -0.012 C 
ATOM     11  H4  <0> d          -0.072   2.402   4.341  0.00  0.00     0.146 H 
ATOM     12  H5  <0> d          -4.666   1.642   2.988  0.00  0.00     0.089 H 
ATOM     13  H6  <0> d          -4.366   3.412   3.020  0.00  0.00     0.089 H 
ATOM     14  H7  <0> d          -5.840   2.645   1.184  0.00  0.00     0.316 HD
ATOM     15  H8  <0> d          -4.560   0.513   0.856  0.00  0.00     0.080 H 
ATOM     16  H9  <0> d          -4.946   1.441  -0.633  0.00  0.00     0.080 H 
ATOM     17  H10 <0> d          -2.705   2.370  -0.729  0.00  0.00     0.042 H 
ATOM     18  H11 <0> d          -2.531   0.600  -0.482  0.00  0.00     0.042 H 
ENDROOT
BRANCH   1  19
ATOM     19  C1  <0> d          -0.013   1.086   0.008  0.00  0.00    -0.035 C 
ATOM     20  H1  <0> d          -0.744   0.958  -0.804  0.00  0.00     0.035 H 
ATOM     21  H2  <0> d           0.475   0.122   0.217  0.00  0.00     0.035 H 
ATOM     22  H3  <0> d           0.746   1.822  -0.295  0.00  0.00     0.035 H 
ENDBRANCH   1  19
TORSDOF 1
