REMARK  2 active torsions:
REMARK  status: ('A' for Active; 'I' for Inactive)
REMARK    1  A    between atoms: C4_4  and  O2_11 
REMARK    2  A    between atoms: C5_6  and  C7_9 
ROOT
ATOM      1  C1  <0> d           0.582   5.167  -1.225  0.00  0.00    -0.064 C 
ATOM      2  C2  <0> d           2.043   5.621  -1.237  0.00  0.00    -0.063 C 
ATOM      3  C3  <0> d           2.755   5.077   0.003  0.00  0.00    -0.040 C 
ATOM      4  C4  <0> d           2.696   3.548  -0.005  0.00  0.00     0.048 C 
ATOM      5  H1  <0> d           3.204   3.160   0.878  0.00  0.00     0.084 H 
ATOM      6  C5  <0> d           1.235   3.094   0.007  0.00  0.00     0.055 C 
ATOM      7  H2  <0> d           0.744   3.473   0.904  0.00  0.00     0.060 H 
ATOM      8  C6  <0> d           0.522   3.639  -1.233  0.00  0.00    -0.050 C 
ATOM      9  H3  <0> d           0.091   5.545  -0.328  0.00  0.00     0.033 H 
ATOM     10  H4  <0> d           0.074   5.555  -2.108  0.00  0.00     0.033 H 
ATOM     11  H5  <0> d           2.085   6.710  -1.231  0.00  0.00     0.033 H 
ATOM     12  H6  <0> d           2.534   5.243  -2.133  0.00  0.00     0.033 H 
ATOM     13  H7  <0> d           2.265   5.455   0.900  0.00  0.00     0.036 H 
ATOM     14  H8  <0> d           3.796   5.400  -0.005  0.00  0.00     0.036 H 
ATOM     15  H9  <0> d           1.013   3.260  -2.130  0.00  0.00     0.034 H 
ATOM     16  H10 <0> d          -0.519   3.315  -1.224  0.00  0.00     0.034 H 
ENDROOT
BRANCH   6  17
ATOM     17  C7  <0> d           1.177   1.588  -0.001  0.00  0.00     0.179 C 
ATOM     18  O1  <0> d           2.199   0.944  -0.014  0.00  0.00    -0.648 OA
ATOM     19  O3  <0> d          -0.011   0.963   0.007  0.00  0.00    -0.648 OA
ENDBRANCH   6  17
BRANCH   4  20
ATOM     20  O2  <0> d           3.340   3.052  -1.180  0.00  0.00    -0.395 OA
ATOM     21  H11 <0> d           4.271   3.302  -1.254  0.00  0.00     0.210 HD
ENDBRANCH   4  20
TORSDOF 2
