REMARK  2 active torsions:
REMARK  status: ('A' for Active; 'I' for Inactive)
REMARK    1  A    between atoms: C3_3  and  C10_11 
REMARK    2  A    between atoms: C10_11  and  O1_12 
ROOT
ATOM      1  C1  <0> d          -0.233   5.021   0.032  0.00  0.00    -0.080 A 
ATOM      2  C2  <0> d          -0.088   3.635   0.017  0.00  0.00    -0.074 A 
ATOM      3  C3  <0> d           1.147   3.062   0.008  0.00  0.00    -0.022 A 
ATOM      4  C4  <0> d           2.290   3.878   0.001  0.00  0.00     0.001 A 
ATOM      5  C5  <0> d           3.585   3.325  -0.015  0.00  0.00    -0.069 A 
ATOM      6  C6  <0> d           4.650   4.180  -0.022  0.00  0.00    -0.065 A 
ATOM      7  C7  <0> d           4.437   5.556  -0.012  0.00  0.00     0.003 A 
ATOM      8  N1  <0> d           3.230   6.068   0.003  0.00  0.00    -0.260 NA
ATOM      9  C8  <0> d           2.145   5.287   0.010  0.00  0.00     0.067 A 
ATOM     10  C9  <0> d           0.853   5.841   0.026  0.00  0.00    -0.054 A 
ATOM     11  H1  <0> d          -1.224   5.451   0.044  0.00  0.00     0.083 H 
ATOM     12  H2  <0> d          -0.967   3.007   0.017  0.00  0.00     0.084 H 
ATOM     13  H3  <0> d           3.731   2.255  -0.022  0.00  0.00     0.085 H 
ATOM     14  H4  <0> d           5.657   3.788  -0.034  0.00  0.00     0.085 H 
ATOM     15  H5  <0> d           5.289   6.220  -0.018  0.00  0.00     0.114 H 
ATOM     16  H6  <0> d           0.723   6.913   0.033  0.00  0.00     0.087 H 
ENDROOT
BRANCH   3  17
ATOM     17  C10 <0> d           1.286   1.562  -0.002  0.00  0.00     0.041 C 
ATOM     18  H7  <0> d           1.840   1.243   0.881  0.00  0.00     0.081 H 
ATOM     19  H8  <0> d           1.823   1.252  -0.899  0.00  0.00     0.081 H 
BRANCH  17  20
ATOM     20  O1  <0> d          -0.011   0.963   0.007  0.00  0.00    -0.396 OA
ATOM     21  H9  <0> d           0.002  -0.004   0.002  0.00  0.00     0.209 HD
ENDBRANCH  17  20
ENDBRANCH   3  17
TORSDOF 2
