REMARK  3 active torsions:
REMARK  status: ('A' for Active; 'I' for Inactive)
REMARK    1  A    between atoms: C1_1  and  C2_2 
REMARK    2  A    between atoms: C5_5  and  C6_8 
REMARK    3  A    between atoms: N1_6  and  N2_7 
ROOT
ATOM      1  C2  <0> d           1.264   1.826  -0.000  0.00  0.00     0.025 A 
ATOM      2  C3  <0> d          -0.017   1.405   0.010  0.00  0.00    -0.058 A 
ATOM      3  C4  <0> d           0.002  -0.004   0.002  0.00  0.00    -0.058 A 
ATOM      4  C5  <0> d           1.294  -0.390  -0.012  0.00  0.00     0.025 A 
ATOM      5  N1  <0> d           2.073   0.729  -0.014  0.00  0.00    -0.289 N 
ATOM      6  H4  <0> d          -0.896   2.032   0.018  0.00  0.00     0.086 H 
ATOM      7  H5  <0> d          -0.860  -0.655   0.007  0.00  0.00     0.086 H 
ENDROOT
BRANCH   1   8
ATOM      8  C1  <0> d           1.722   3.261   0.003  0.00  0.00    -0.036 C 
ATOM      9  H1  <0> d           1.843   3.602   1.032  0.00  0.00     0.035 H 
ATOM     10  H2  <0> d           2.675   3.340  -0.520  0.00  0.00     0.035 H 
ATOM     11  H3  <0> d           0.980   3.881  -0.500  0.00  0.00     0.035 H 
ENDBRANCH   1   8
BRANCH   5  12
ATOM     12  N2  <0> d           3.439   0.747  -0.026  0.00  0.00    -0.243 NA
ATOM     13  H6  <0> d           3.792   0.757  -0.972  0.00  0.00     0.143 HD
ATOM     14  H7  <0> d           3.795   1.531   0.500  0.00  0.00     0.143 HD
ENDBRANCH   5  12
BRANCH   4  15
ATOM     15  C6  <0> d           1.791  -1.813  -0.025  0.00  0.00    -0.036 C 
ATOM     16  H8  <0> d           1.900  -2.151  -1.055  0.00  0.00     0.035 H 
ATOM     17  H9  <0> d           2.756  -1.865   0.479  0.00  0.00     0.035 H 
ATOM     18  H10 <0> d           1.076  -2.452   0.493  0.00  0.00     0.035 H 
ENDBRANCH   4  15
TORSDOF 3
