REMARK  0 active torsions:
REMARK  status: ('A' for Active; 'I' for Inactive)
ROOT
ATOM      1  C1  <0> d          -1.342   3.509   0.038  0.00  0.00    -0.082 A 
ATOM      2  C2  <0> d          -0.187   4.269   0.034  0.00  0.00    -0.082 A 
ATOM      3  C3  <0> d           1.043   3.645   0.018  0.00  0.00    -0.075 A 
ATOM      4  C4  <0> d           1.131   2.259   0.003  0.00  0.00    -0.034 A 
ATOM      5  C5  <0> d          -0.018   1.502   0.010  0.00  0.00    -0.051 A 
ATOM      6  C6  <0> d          -1.256   2.132   0.032  0.00  0.00    -0.076 A 
ATOM      7  C7  <0> d           0.002  -0.004   0.002  0.00  0.00    -0.040 C 
ATOM      8  C8  <0> d           1.368  -0.520  -0.446  0.00  0.00    -0.060 C 
ATOM      9  C9  <0> d           2.446   0.176   0.393  0.00  0.00    -0.046 C 
ATOM     10  C10 <0> d           2.507   1.644  -0.022  0.00  0.00     0.056 C 
ATOM     11  H1  <0> d           3.163   2.205   0.660  0.00  0.00     0.070 H 
ATOM     12  C11 <0> d           3.055   1.741  -1.385  0.00  0.00     0.068 C 
ATOM     13  N1  <0> d           3.479   1.816  -2.436  0.00  0.00    -0.197 NA
ATOM     14  H2  <0> d          -2.309   3.991   0.049  0.00  0.00     0.083 H 
ATOM     15  H3  <0> d          -0.248   5.347   0.045  0.00  0.00     0.083 H 
ATOM     16  H4  <0> d           1.944   4.239   0.015  0.00  0.00     0.084 H 
ATOM     17  H5  <0> d          -2.159   1.539   0.038  0.00  0.00     0.084 H 
ATOM     18  H6  <0> d          -0.206  -0.379   1.015  0.00  0.00     0.040 H 
ATOM     19  H7  <0> d          -0.765  -0.377  -0.692  0.00  0.00     0.040 H 
ATOM     20  H8  <0> d           1.417  -1.609  -0.293  0.00  0.00     0.033 H 
ATOM     21  H9  <0> d           1.515  -0.292  -1.512  0.00  0.00     0.033 H 
ATOM     22  H10 <0> d           2.189   0.097   1.460  0.00  0.00     0.035 H 
ATOM     23  H11 <0> d           3.419  -0.306   0.214  0.00  0.00     0.035 H 
ENDROOT
TORSDOF 0
