REMARK  5 active torsions:
REMARK  status: ('A' for Active; 'I' for Inactive)
REMARK    1  A    between atoms: C1_1  and  C2_2 
REMARK    2  A    between atoms: C2_2  and  C3_3 
REMARK    3  A    between atoms: C3_3  and  O2_5 
REMARK    4  A    between atoms: O2_5  and  C4_6 
REMARK    5  A    between atoms: C4_6  and  C5_7 
ROOT
ATOM      1  C4  <0> d           1.536  -2.203  -2.673  0.00  0.00     0.053 C 
ATOM      2  H7  <0> d           0.999  -1.815  -3.539  0.00  0.00     0.079 H 
ATOM      3  H8  <0> d           2.549  -1.799  -2.664  0.00  0.00     0.079 H 
ENDROOT
BRANCH   1   4
ATOM      4  O2  <0> d           0.846  -1.807  -1.459  0.00  0.00    -0.319 OA
BRANCH   4   5
ATOM      5  C3  <0> d           0.707  -0.490  -1.238  0.00  0.00     0.258 C 
ATOM      6  O1  <0> d           1.148   0.305  -2.033  0.00  0.00    -0.265 OA
BRANCH   5   7
ATOM      7  C2  <0> d           0.002  -0.004   0.002  0.00  0.00     0.013 C 
ATOM      8  H5  <0> d           0.529  -0.365   0.885  0.00  0.00     0.047 H 
ATOM      9  H6  <0> d          -1.020  -0.381   0.010  0.00  0.00     0.047 H 
BRANCH   7  10
ATOM     10  C1  <0> d          -0.019   1.526   0.010  0.00  0.00    -0.068 C 
ATOM     11  H2  <0> d           1.004   1.903   0.003  0.00  0.00     0.028 H 
ATOM     12  H3  <0> d          -0.546   1.887  -0.873  0.00  0.00     0.028 H 
ATOM     13  H4  <0> d          -0.529   1.877   0.907  0.00  0.00     0.028 H 
ENDBRANCH   7  10
ENDBRANCH   5   7
ENDBRANCH   4   5
ENDBRANCH   1   4
BRANCH   1  14
ATOM     14  C5  <0> d           1.596  -3.729  -2.752  0.00  0.00     0.059 C 
ATOM     15  H1  <0> d           2.045  -4.129  -1.842  0.00  0.00     0.086 H 
ATOM     16  O3  <0> d           0.276  -4.260  -2.916  0.00  0.00    -0.384 OA
ATOM     17  C8  <0> d           0.181  -4.960  -4.167  0.00  0.00     0.020 C 
ATOM     18  C7  <0> d           1.632  -5.385  -4.504  0.00  0.00    -0.043 C 
ATOM     19  H13 <0> d          -0.456  -5.838  -4.061  0.00  0.00     0.074 H 
ATOM     20  H14 <0> d          -0.212  -4.300  -4.941  0.00  0.00     0.074 H 
ATOM     21  C6  <0> d           2.428  -4.159  -3.979  0.00  0.00    -0.037 C 
ATOM     22  H11 <0> d           1.910  -6.292  -3.968  0.00  0.00     0.036 H 
ATOM     23  H12 <0> d           1.765  -5.510  -5.578  0.00  0.00     0.036 H 
ATOM     24  H9  <0> d           2.454  -3.365  -4.726  0.00  0.00     0.036 H 
ATOM     25  H10 <0> d           3.436  -4.448  -3.683  0.00  0.00     0.036 H 
ENDBRANCH   1  14
TORSDOF 5
