REMARK  0 active torsions:
REMARK  status: ('A' for Active; 'I' for Inactive)
ROOT
ATOM      1  C1  <0> d          -0.019   1.541   0.011  0.00  0.00    -0.040 C 
ATOM      2  C2  <0> d           1.435   1.950  -0.001  0.00  0.00    -0.105 C 
ATOM      3  C3  <0> d           2.202   0.954  -0.347  0.00  0.00    -0.101 C 
ATOM      4  C4  <0> d           1.394  -0.291  -0.623  0.00  0.00    -0.021 C 
ATOM      5  H1  <0> d           1.401  -0.638  -1.656  0.00  0.00     0.048 H 
ATOM      6  C5  <0> d           0.002  -0.004   0.002  0.00  0.00     0.014 C 
ATOM      7  H2  <0> d          -0.868  -0.347  -0.352  0.00  0.00     0.053 H 
ATOM      8  C6  <0> d           0.532  -0.598   1.290  0.00  0.00     0.132 C 
ATOM      9  O1  <0> d           0.263  -0.494   2.463  0.00  0.00    -0.298 OA
ATOM     10  C7  <0> d           1.552  -1.379   0.452  0.00  0.00    -0.002 C 
ATOM     11  H3  <0> d          -0.526   1.918  -0.878  0.00  0.00     0.040 H 
ATOM     12  H4  <0> d          -0.509   1.908   0.912  0.00  0.00     0.040 H 
ATOM     13  H5  <0> d           1.792   2.939   0.245  0.00  0.00     0.076 H 
ATOM     14  H6  <0> d           3.278   1.012  -0.427  0.00  0.00     0.077 H 
ATOM     15  H7  <0> d           1.329  -2.271   0.059  0.00  0.00     0.045 H 
ATOM     16  H8  <0> d           2.548  -1.417   0.892  0.00  0.00     0.045 H 
ENDROOT
TORSDOF 0
