REMARK  1 active torsions:
REMARK  status: ('A' for Active; 'I' for Inactive)
REMARK    1  A    between atoms: C10_14  and  O1_16 
ROOT
ATOM      1  C1  <0> d           1.193  -0.360  -0.943  0.00  0.00    -0.064 C 
ATOM      2  C2  <0> d           0.002  -0.004   0.002  0.00  0.00    -0.061 C 
ATOM      3  C3  <0> d          -0.019   1.522   0.010  0.00  0.00    -0.047 C 
ATOM      4  H1  <0> d          -0.523   1.935  -0.863  0.00  0.00     0.041 H 
ATOM      5  C4  <0> d           1.545   1.748  -0.003  0.00  0.00    -0.044 C 
ATOM      6  H2  <0> d           1.778   1.075   0.822  0.00  0.00     0.041 H 
ATOM      7  C5  <0> d           1.962   0.986  -1.197  0.00  0.00    -0.061 C 
ATOM      8  C6  <0> d           1.772   3.101   0.590  0.00  0.00    -0.025 C 
ATOM      9  H3  <0> d           2.517   3.738   0.114  0.00  0.00     0.044 H 
ATOM     10  C7  <0> d           0.313   3.686   0.768  0.00  0.00    -0.055 C 
ATOM     11  C8  <0> d          -0.320   2.304   1.295  0.00  0.00    -0.048 C 
ATOM     12  H4  <0> d          -1.370   2.334   1.583  0.00  0.00     0.040 H 
ATOM     13  C9  <0> d           0.670   1.958   2.427  0.00  0.00    -0.037 C 
ATOM     14  C10 <0> d           2.005   2.679   2.097  0.00  0.00     0.040 C 
ATOM     15  H5  <0> d           2.851   1.997   2.186  0.00  0.00     0.083 H 
ATOM     16  H6  <0> d           1.851  -1.084  -0.462  0.00  0.00     0.033 H 
ATOM     17  H7  <0> d           0.818  -0.763  -1.884  0.00  0.00     0.033 H 
ATOM     18  H8  <0> d           0.182  -0.389   1.006  0.00  0.00     0.033 H 
ATOM     19  H9  <0> d          -0.933  -0.397  -0.397  0.00  0.00     0.033 H 
ATOM     20  H10 <0> d           3.041   0.829  -1.209  0.00  0.00     0.033 H 
ATOM     21  H11 <0> d           1.624   1.469  -2.114  0.00  0.00     0.033 H 
ATOM     22  H12 <0> d           0.271   4.460   1.534  0.00  0.00     0.034 H 
ATOM     23  H13 <0> d          -0.111   4.028  -0.176  0.00  0.00     0.034 H 
ATOM     24  H14 <0> d           0.282   2.313   3.382  0.00  0.00     0.037 H 
ATOM     25  H15 <0> d           0.829   0.880   2.467  0.00  0.00     0.037 H 
ENDROOT
BRANCH  14  26
ATOM     26  O1  <0> d           2.187   3.828   2.928  0.00  0.00    -0.395 OA
ATOM     27  H16 <0> d           2.334   3.619   3.861  0.00  0.00     0.210 HD
ENDBRANCH  14  26
TORSDOF 1
