REMARK  2 active torsions:
REMARK  status: ('A' for Active; 'I' for Inactive)
REMARK    1  A    between atoms: C3_3  and  C7_8 
REMARK    2  A    between atoms: C5_5  and  N1_7 
ROOT
ATOM      1  C1  <0> d          -1.220   1.748   0.017  0.00  0.00    -0.080 A 
ATOM      2  C2  <0> d          -1.247   3.128   0.030  0.00  0.00    -0.070 A 
ATOM      3  C3  <0> d          -0.052   3.850   0.022  0.00  0.00    -0.000 A 
ATOM      4  C4  <0> d           1.167   3.171   0.007  0.00  0.00    -0.045 A 
ATOM      5  C5  <0> d           1.183   1.785   0.000  0.00  0.00     0.026 A 
ATOM      6  C6  <0> d          -0.013   1.076   0.008  0.00  0.00    -0.058 A 
ATOM      7  H1  <0> d          -2.146   1.192   0.019  0.00  0.00     0.083 H 
ATOM      8  H2  <0> d          -2.192   3.650   0.041  0.00  0.00     0.084 H 
ATOM      9  H3  <0> d           2.095   3.724   0.001  0.00  0.00     0.088 H 
ATOM     10  H4  <0> d           0.002  -0.004   0.002  0.00  0.00     0.086 H 
ENDROOT
BRANCH   3  11
ATOM     11  C7  <0> d          -0.078   5.327   0.030  0.00  0.00     0.085 A 
ATOM     12  O1  <0> d           0.999   6.137   0.025  0.00  0.00    -0.322 OA
ATOM     13  C10 <0> d           0.595   7.417   0.035  0.00  0.00     0.019 A 
ATOM     14  C9  <0> d          -0.752   7.444   0.048  0.00  0.00    -0.059 A 
ATOM     15  H9  <0> d           1.242   8.282   0.034  0.00  0.00     0.123 H 
ATOM     16  C8  <0> d          -1.192   6.106   0.039  0.00  0.00    -0.048 A 
ATOM     17  H8  <0> d          -1.377   8.325   0.059  0.00  0.00     0.086 H 
ATOM     18  H7  <0> d          -2.217   5.764   0.041  0.00  0.00     0.087 H 
ENDBRANCH   3  11
BRANCH   5  19
ATOM     19  N1  <0> d           2.401   1.101  -0.014  0.00  0.00    -0.399 N 
ATOM     20  H5  <0> d           2.413   0.131  -0.019  0.00  0.00     0.156 HD
ATOM     21  H6  <0> d           3.236   1.596  -0.019  0.00  0.00     0.156 HD
ENDBRANCH   5  19
TORSDOF 2
