REMARK  4 active torsions:
REMARK  status: ('A' for Active; 'I' for Inactive)
REMARK    1  A    between atoms: C2_2  and  C6_11 
REMARK    2  A    between atoms: C4_6  and  C5_9 
REMARK    3  A    between atoms: C5_9  and  O3_10 
REMARK    4  A    between atoms: C6_11  and  O4_12 
ROOT
ATOM      1  C1  <0> d           0.029   1.203  -2.489  0.00  0.00     0.046 C 
ATOM      2  C2  <0> d          -0.753   1.593  -1.232  0.00  0.00     0.079 C 
ATOM      3  H1  <0> d          -0.913   2.680  -1.179  0.00  0.00     0.089 H 
ATOM      4  O1  <0> d          -2.055   1.003  -1.285  0.00  0.00    -0.379 OA
ATOM      5  C3  <0> d          -2.807   1.380  -2.443  0.00  0.00     0.046 C 
ATOM      6  C4  <0> d          -2.026   0.991  -3.700  0.00  0.00     0.079 C 
ATOM      7  H2  <0> d          -1.865  -0.097  -3.753  0.00  0.00     0.089 H 
ATOM      8  O2  <0> d          -0.724   1.581  -3.646  0.00  0.00    -0.379 OA
ATOM      9  H3  <0> d           0.195   0.115  -2.499  0.00  0.00     0.078 H 
ATOM     10  H4  <0> d           0.999   1.721  -2.497  0.00  0.00     0.078 H 
ATOM     11  H5  <0> d          -3.777   0.861  -2.435  0.00  0.00     0.078 H 
ATOM     12  H6  <0> d          -2.973   2.468  -2.433  0.00  0.00     0.078 H 
ENDROOT
BRANCH   2  13
ATOM     13  C6  <0> d          -0.013   1.086   0.008  0.00  0.00     0.043 C 
ATOM     14  H10 <0> d           0.002  -0.014   0.002  0.00  0.00     0.078 H 
ATOM     15  H11 <0> d           1.019   1.466   0.000  0.00  0.00     0.078 H 
BRANCH  13  16
ATOM     16  O4  <0> d          -0.682   1.547   1.184  0.00  0.00    -0.398 OA
ATOM     17  H12 <0> d          -0.293   1.281   2.178  0.00  0.00     0.209 HD
ENDBRANCH  13  16
ENDBRANCH   2  13
BRANCH   6  18
ATOM     18  C5  <0> d          -2.765   1.496  -4.941  0.00  0.00     0.043 C 
ATOM     19  H7  <0> d          -3.796   1.113  -4.935  0.00  0.00     0.078 H 
ATOM     20  H8  <0> d          -2.783   2.596  -4.934  0.00  0.00     0.078 H 
BRANCH  18  21
ATOM     21  O3  <0> d          -2.093   1.038  -6.116  0.00  0.00    -0.398 OA
ATOM     22  H9  <0> d          -2.481   1.303  -7.110  0.00  0.00     0.209 HD
ENDBRANCH  18  21
ENDBRANCH   6  18
TORSDOF 4
