REMARK  7 active torsions:
REMARK  status: ('A' for Active; 'I' for Inactive)
REMARK    1  A    between atoms: C1_1  and  O1_2 
REMARK    2  A    between atoms: O1_2  and  C2_3 
REMARK    3  A    between atoms: C2_3  and  C3_4 
REMARK    4  A    between atoms: C3_4  and  O2_5 
REMARK    5  A    between atoms: O2_5  and  C4_6 
REMARK    6  A    between atoms: C4_6  and  C5_8 
REMARK    7  A    between atoms: C5_8  and  O4_9 
ROOT
ATOM      1  C3  <0> d           2.367   1.117  -0.015  0.00  0.00     0.048 C 
ATOM      2  H6  <0> d           2.409   0.484   0.872  0.00  0.00     0.078 H 
ATOM      3  H7  <0> d           2.392   0.493  -0.908  0.00  0.00     0.078 H 
ENDROOT
BRANCH   1   4
ATOM      4  C2  <0> d           3.568   2.065  -0.021  0.00  0.00     0.039 C 
ATOM      5  H4  <0> d           4.487   1.488  -0.122  0.00  0.00     0.077 H 
ATOM      6  H5  <0> d           3.479   2.757  -0.858  0.00  0.00     0.077 H 
BRANCH   4   7
ATOM      7  O1  <0> d           3.600   2.801   1.204  0.00  0.00    -0.394 OA
BRANCH   7   8
ATOM      8  C1  <0> d           4.689   3.721   1.301  0.00  0.00     0.004 C 
ATOM      9  H1  <0> d           4.624   4.447   0.491  0.00  0.00     0.066 H 
ATOM     10  H2  <0> d           4.643   4.239   2.258  0.00  0.00     0.066 H 
ATOM     11  H3  <0> d           5.631   3.177   1.227  0.00  0.00     0.066 H 
ENDBRANCH   7   8
ENDBRANCH   4   7
ENDBRANCH   1   4
BRANCH   1  12
ATOM     12  O2  <0> d           1.139   1.891   0.001  0.00  0.00    -0.318 OA
BRANCH  12  13
ATOM     13  C4  <0> d          -0.014   1.204   0.009  0.00  0.00     0.282 C 
ATOM     14  O3  <0> d           0.002  -0.004   0.002  0.00  0.00    -0.263 OA
BRANCH  13  15
ATOM     15  C5  <0> d          -1.329   1.940   0.019  0.00  0.00     0.097 C 
ATOM     16  H8  <0> d          -1.391   2.561   0.913  0.00  0.00     0.089 H 
ATOM     17  H9  <0> d          -1.400   2.570  -0.867  0.00  0.00     0.089 H 
BRANCH  15  18
ATOM     18  O4  <0> d          -2.403   0.997   0.019  0.00  0.00    -0.391 OA
ATOM     19  H10 <0> d          -3.281   1.400   0.025  0.00  0.00     0.210 HD
ENDBRANCH  15  18
ENDBRANCH  13  15
ENDBRANCH  12  13
ENDBRANCH   1  12
TORSDOF 7
