REMARK  1 active torsions:
REMARK  status: ('A' for Active; 'I' for Inactive)
REMARK    1  A    between atoms: C3_3  and  C7_9 
ROOT
ATOM      1  C7  <0> d          -0.018   1.468   0.010  0.00  0.00     0.041 C 
ATOM      2  C8  <0> d           0.002  -0.004   0.002  0.00  0.00     0.063 C 
ATOM      3  N1  <0> d           0.018  -1.140  -0.004  0.00  0.00    -0.197 NA
ATOM      4  H4  <0> d          -0.545   1.829  -0.873  0.00  0.00     0.062 H 
ATOM      5  H5  <0> d          -0.528   1.819   0.907  0.00  0.00     0.062 H 
ENDROOT
BRANCH   1   6
ATOM      6  C3  <0> d           1.396   1.989  -0.001  0.00  0.00    -0.003 A 
ATOM      7  C2  <0> d           1.961   2.430  -1.183  0.00  0.00    -0.073 A 
ATOM      8  C1  <0> d           3.258   2.909  -1.194  0.00  0.00    -0.079 A 
ATOM      9  H2  <0> d           1.389   2.400  -2.098  0.00  0.00     0.084 H 
ATOM     10  C6  <0> d           3.992   2.948  -0.024  0.00  0.00    -0.043 A 
ATOM     11  H1  <0> d           3.698   3.252  -2.119  0.00  0.00     0.083 H 
ATOM     12  C5  <0> d           3.429   2.508   1.162  0.00  0.00     0.155 A 
ATOM     13  H3  <0> d           5.005   3.322  -0.034  0.00  0.00     0.088 H 
ATOM     14  C4  <0> d           2.127   2.033   1.174  0.00  0.00     0.162 A 
ATOM     15  F1  <0> d           4.145   2.547   2.306  0.00  0.00    -0.203 F 
ATOM     16  F2  <0> d           1.573   1.607   2.331  0.00  0.00    -0.202 F 
ENDBRANCH   1   6
TORSDOF 1
