REMARK  6 active torsions:
REMARK  status: ('A' for Active; 'I' for Inactive)
REMARK    1  A    between atoms: C1_1  and  C2_2 
REMARK    2  A    between atoms: C2_2  and  O1_3 
REMARK    3  A    between atoms: O1_3  and  C3_4 
REMARK    4  A    between atoms: C3_4  and  C4_5 
REMARK       I    between atoms: C4_5  and  N1_7 
REMARK    5  A    between atoms: N1_7  and  C5_8 
REMARK    6  A    between atoms: N1_7  and  C6_9 
ROOT
ATOM      1  C3  <0> d          -1.330   1.944   0.019  0.00  0.00     0.093 C 
ATOM      2  H6  <0> d          -1.392   2.565   0.913  0.00  0.00     0.089 H 
ATOM      3  H7  <0> d          -1.400   2.575  -0.867  0.00  0.00     0.089 H 
ENDROOT
BRANCH   1   4
ATOM      4  O1  <0> d          -2.403   1.001   0.019  0.00  0.00    -0.382 OA
BRANCH   4   5
ATOM      5  C2  <0> d          -3.701   1.598   0.028  0.00  0.00     0.017 C 
ATOM      6  H4  <0> d          -3.812   2.212   0.922  0.00  0.00     0.073 H 
ATOM      7  H5  <0> d          -3.821   2.221  -0.858  0.00  0.00     0.073 H 
BRANCH   5   8
ATOM      8  C1  <0> d          -4.767   0.500   0.027  0.00  0.00    -0.056 C 
ATOM      9  H1  <0> d          -4.656  -0.113  -0.867  0.00  0.00     0.030 H 
ATOM     10  H2  <0> d          -4.648  -0.123   0.913  0.00  0.00     0.030 H 
ATOM     11  H3  <0> d          -5.758   0.956   0.035  0.00  0.00     0.030 H 
ENDBRANCH   5   8
ENDBRANCH   4   5
ENDBRANCH   1   4
BRANCH   1  12
ATOM     12  C4  <0> d          -0.014   1.209   0.009  0.00  0.00     0.242 C 
ATOM     13  O2  <0> d           0.002  -0.004   0.002  0.00  0.00    -0.271 OA
ATOM     14  N1  <0> d           1.143   1.898   0.001  0.00  0.00    -0.359 N 
BRANCH  14  15
ATOM     15  C5  <0> d           2.422   1.183  -0.015  0.00  0.00    -0.017 C 
ATOM     16  H8  <0> d           2.729   1.011  -1.046  0.00  0.00     0.056 H 
ATOM     17  H9  <0> d           3.179   1.780   0.495  0.00  0.00     0.056 H 
ATOM     18  H10 <0> d           2.309   0.226   0.495  0.00  0.00     0.056 H 
ENDBRANCH  14  15
BRANCH  14  19
ATOM     19  C6  <0> d           1.124   3.363   0.009  0.00  0.00    -0.017 C 
ATOM     20  H11 <0> d           0.614   3.715   0.906  0.00  0.00     0.056 H 
ATOM     21  H12 <0> d           2.146   3.740   0.002  0.00  0.00     0.056 H 
ATOM     22  H13 <0> d           0.597   3.724  -0.874  0.00  0.00     0.056 H 
ENDBRANCH  14  19
ENDBRANCH   1  12
TORSDOF 6
