REMARK  3 active torsions:
REMARK  status: ('A' for Active; 'I' for Inactive)
REMARK    1  A    between atoms: C3_3  and  C6_8 
REMARK    2  A    between atoms: C4_4  and  N2_7 
REMARK    3  A    between atoms: C6_8  and  O1_9 
ROOT
ATOM      1  C1  <0> d          -0.013   1.076   0.008  0.00  0.00    -0.065 A 
ATOM      2  C2  <0> d          -1.221   1.761   0.017  0.00  0.00    -0.070 A 
ATOM      3  C3  <0> d          -1.195   3.144   0.030  0.00  0.00     0.011 A 
ATOM      4  C4  <0> d           0.033   3.798   0.022  0.00  0.00     0.129 A 
ATOM      5  N1  <0> d           1.163   3.109   0.008  0.00  0.00    -0.243 NA
ATOM      6  C5  <0> d           1.169   1.789   0.001  0.00  0.00     0.004 A 
ATOM      7  H1  <0> d           0.002  -0.004   0.002  0.00  0.00     0.085 H 
ATOM      8  H2  <0> d          -2.159   1.226   0.018  0.00  0.00     0.084 H 
ATOM      9  H3  <0> d           2.111   1.260  -0.012  0.00  0.00     0.114 H 
ENDROOT
BRANCH   3  10
ATOM     10  C6  <0> d          -2.480   3.931   0.046  0.00  0.00     0.044 C 
ATOM     11  H6  <0> d          -2.513   4.560   0.948  0.00  0.00     0.081 H 
ATOM     12  H7  <0> d          -2.530   4.569  -0.848  0.00  0.00     0.081 H 
BRANCH  10  13
ATOM     13  O1  <0> d          -3.590   3.031   0.052  0.00  0.00    -0.396 OA
ATOM     14  H8  <0> d          -4.617   3.425   0.064  0.00  0.00     0.209 HD
ENDBRANCH  10  13
ENDBRANCH   3  10
BRANCH   4  15
ATOM     15  N2  <0> d           0.073   5.187   0.029  0.00  0.00    -0.384 N 
ATOM     16  H4  <0> d           1.041   5.709   0.022  0.00  0.00     0.157 HD
ATOM     17  H5  <0> d          -0.863   5.764   0.041  0.00  0.00     0.157 HD
ENDBRANCH   4  15
TORSDOF 3
