REMARK  0 active torsions:
REMARK  status: ('A' for Active; 'I' for Inactive)
ROOT
ATOM      1  C1  <0> d           1.176   2.057   0.002  0.00  0.00    -0.043 A 
ATOM      2  C2  <0> d           1.173   3.436   0.009  0.00  0.00    -0.047 A 
ATOM      3  C3  <0> d          -0.030   4.137   0.025  0.00  0.00     0.083 A 
ATOM      4  C4  <0> d          -1.234   3.419   0.032  0.00  0.00     0.048 A 
ATOM      5  C5  <0> d          -1.220   2.020   0.019  0.00  0.00    -0.029 A 
ATOM      6  C6  <0> d          -0.016   1.347   0.009  0.00  0.00     0.117 A 
ATOM      7  F1  <0> d           0.002  -0.004   0.002  0.00  0.00    -0.206 F 
ATOM      8  C7  <0> d          -2.342   4.388   0.047  0.00  0.00     0.186 A 
ATOM      9  O1  <0> d          -3.532   4.155   0.057  0.00  0.00    -0.290 OA
ATOM     10  C8  <0> d          -1.662   5.741   0.048  0.00  0.00     0.085 A 
ATOM     11  O2  <0> d          -0.259   5.472   0.033  0.00  0.00    -0.343 OA
ATOM     12  H1  <0> d           2.115   1.524  -0.010  0.00  0.00     0.088 H 
ATOM     13  H2  <0> d           2.108   3.975   0.003  0.00  0.00     0.087 H 
ATOM     14  H3  <0> d          -2.149   1.469   0.020  0.00  0.00     0.089 H 
ATOM     15  H4  <0> d          -1.946   6.257  -0.760  0.00  0.00     0.087 H 
ATOM     16  H5  <0> d          -1.930   6.296   0.946  0.00  0.00     0.087 H 
ENDROOT
TORSDOF 0
