REMARK  2 active torsions:
REMARK  status: ('A' for Active; 'I' for Inactive)
REMARK    1  A    between atoms: C1_1  and  C2_2 
REMARK    2  A    between atoms: C5_5  and  C8_8 
REMARK       I    between atoms: C8_8  and  N1_10 
ROOT
ATOM      1  C2  <0> d           1.170   2.086   0.002  0.00  0.00    -0.062 A 
ATOM      2  C3  <0> d          -0.017   1.375   0.010  0.00  0.00    -0.076 A 
ATOM      3  C4  <0> d           0.002  -0.004   0.002  0.00  0.00    -0.067 A 
ATOM      4  C5  <0> d           1.222  -0.682  -0.013  0.00  0.00     0.031 A 
ATOM      5  C6  <0> d           2.416   0.041  -0.021  0.00  0.00    -0.067 A 
ATOM      6  C7  <0> d           2.383   1.420  -0.013  0.00  0.00    -0.076 A 
ATOM      7  H4  <0> d          -0.960   1.901   0.017  0.00  0.00     0.084 H 
ATOM      8  H5  <0> d          -0.925  -0.558   0.008  0.00  0.00     0.085 H 
ATOM      9  H6  <0> d           3.363  -0.478  -0.032  0.00  0.00     0.085 H 
ATOM     10  H7  <0> d           3.306   1.981  -0.019  0.00  0.00     0.084 H 
ENDROOT
BRANCH   4  11
ATOM     11  C8  <0> d           1.250  -2.160  -0.021  0.00  0.00     0.249 C 
ATOM     12  O1  <0> d           0.208  -2.788  -0.014  0.00  0.00    -0.268 OA
ATOM     13  N1  <0> d           2.429  -2.812  -0.036  0.00  0.00    -0.366 N 
ATOM     14  H8  <0> d           3.260  -2.312  -0.041  0.00  0.00     0.159 HD
ATOM     15  H9  <0> d           2.447  -3.782  -0.041  0.00  0.00     0.159 HD
ENDBRANCH   4  11
BRANCH   1  16
ATOM     16  C1  <0> d           1.142   3.593   0.010  0.00  0.00    -0.051 C 
ATOM     17  H1  <0> d           1.145   3.951   1.039  0.00  0.00     0.033 H 
ATOM     18  H2  <0> d           2.020   3.976  -0.510  0.00  0.00     0.033 H 
ATOM     19  H3  <0> d           0.241   3.942  -0.494  0.00  0.00     0.033 H 
ENDBRANCH   1  16
TORSDOF 2
