REMARK  4 active torsions:
REMARK  status: ('A' for Active; 'I' for Inactive)
REMARK    1  A    between atoms: C1_1  and  C2_2 
REMARK    2  A    between atoms: C3_4  and  C5_8 
REMARK    3  A    between atoms: C5_8  and  C6_9 
REMARK    4  A    between atoms: C5_8  and  C7_10 
ROOT
ATOM      1  C2  <0> d           1.178  -0.400   0.523  0.00  0.00     0.131 C 
ATOM      2  N1  <0> d           2.076   0.522   0.555  0.00  0.00    -0.263 NA
ATOM      3  C3  <0> d           1.497   1.760  -0.003  0.00  0.00     0.058 C 
ATOM      4  H1  <0> d           1.851   1.931  -1.020  0.00  0.00     0.079 H 
ATOM      5  C4  <0> d          -0.018   1.438   0.010  0.00  0.00     0.048 C 
ATOM      6  O1  <0> d           0.002  -0.004   0.002  0.00  0.00    -0.336 OA
ATOM      7  H5  <0> d          -0.508   1.829  -0.881  0.00  0.00     0.078 H 
ATOM      8  H6  <0> d          -0.491   1.819   0.915  0.00  0.00     0.078 H 
ENDROOT
BRANCH   3   9
ATOM      9  C5  <0> d           1.809   2.961   0.892  0.00  0.00    -0.037 C 
ATOM     10  H7  <0> d           1.507   2.739   1.916  0.00  0.00     0.042 H 
BRANCH   9  11
ATOM     11  C6  <0> d           3.311   3.248   0.855  0.00  0.00    -0.071 C 
ATOM     12  H8  <0> d           3.534   4.104   1.493  0.00  0.00     0.028 H 
ATOM     13  H9  <0> d           3.857   2.376   1.214  0.00  0.00     0.028 H 
ATOM     14  H10 <0> d           3.614   3.470  -0.169  0.00  0.00     0.028 H 
ENDBRANCH   9  11
BRANCH   9  15
ATOM     15  C7  <0> d           1.043   4.185   0.388  0.00  0.00    -0.071 C 
ATOM     16  H11 <0> d          -0.027   3.981   0.415  0.00  0.00     0.028 H 
ATOM     17  H12 <0> d           1.265   5.041   1.026  0.00  0.00     0.028 H 
ATOM     18  H13 <0> d           1.345   4.407  -0.635  0.00  0.00     0.028 H 
ENDBRANCH   9  15
ENDBRANCH   3   9
BRANCH   1  19
ATOM     19  C1  <0> d           1.423  -1.799   1.026  0.00  0.00    -0.016 C 
ATOM     20  H2  <0> d           0.519  -2.395   0.895  0.00  0.00     0.038 H 
ATOM     21  H3  <0> d           2.240  -2.250   0.463  0.00  0.00     0.038 H 
ATOM     22  H4  <0> d           1.685  -1.765   2.083  0.00  0.00     0.038 H 
ENDBRANCH   1  19
TORSDOF 4
