REMARK  4 active torsions:
REMARK  status: ('A' for Active; 'I' for Inactive)
REMARK    1  A    between atoms: C1_1  and  C2_2 
REMARK    2  A    between atoms: C2_2  and  C3_3 
REMARK    3  A    between atoms: C5_5  and  C9_10 
REMARK    4  A    between atoms: C7_7  and  O1_9 
ROOT
ATOM      1  C3  <0> d           0.000   1.080   2.488  0.00  0.00    -0.055 A 
ATOM      2  C4  <0> d           1.012   1.839   3.046  0.00  0.00    -0.071 A 
ATOM      3  C5  <0> d           1.683   1.383   4.166  0.00  0.00    -0.059 A 
ATOM      4  C6  <0> d           1.342   0.169   4.731  0.00  0.00    -0.045 A 
ATOM      5  C7  <0> d           0.327  -0.593   4.173  0.00  0.00     0.066 A 
ATOM      6  C8  <0> d          -0.347  -0.132   3.051  0.00  0.00    -0.045 A 
ATOM      7  H6  <0> d           1.280   2.788   2.607  0.00  0.00     0.085 H 
ATOM      8  H7  <0> d           1.866  -0.186   5.606  0.00  0.00     0.088 H 
ATOM      9  H8  <0> d          -1.141  -0.722   2.617  0.00  0.00     0.088 H 
ENDROOT
BRANCH   1  10
ATOM     10  C2  <0> d          -0.729   1.579   1.267  0.00  0.00    -0.044 C 
ATOM     11  H4  <0> d          -0.744   2.669   1.273  0.00  0.00     0.039 H 
ATOM     12  H5  <0> d          -1.751   1.202   1.275  0.00  0.00     0.039 H 
BRANCH  10  13
ATOM     13  C1  <0> d          -0.013   1.086   0.008  0.00  0.00    -0.073 C 
ATOM     14  H1  <0> d           0.002  -0.004   0.002  0.00  0.00     0.028 H 
ATOM     15  H2  <0> d           1.010   1.463   0.000  0.00  0.00     0.028 H 
ATOM     16  H3  <0> d          -0.540   1.447  -0.875  0.00  0.00     0.028 H 
ENDBRANCH  10  13
ENDBRANCH   1  10
BRANCH   5  17
ATOM     17  O1  <0> d          -0.010  -1.788   4.726  0.00  0.00    -0.361 OA
ATOM     18  H9  <0> d          -0.697  -1.728   5.404  0.00  0.00     0.217 HD
ENDBRANCH   5  17
BRANCH   3  19
ATOM     19  C9  <0> d           2.786   2.212   4.772  0.00  0.00    -0.051 C 
ATOM     20  H10 <0> d           2.366   2.885   5.521  0.00  0.00     0.033 H 
ATOM     21  H11 <0> d           3.518   1.556   5.243  0.00  0.00     0.033 H 
ATOM     22  H12 <0> d           3.272   2.797   3.991  0.00  0.00     0.033 H 
ENDBRANCH   3  19
TORSDOF 4
