REMARK  3 active torsions:
REMARK  status: ('A' for Active; 'I' for Inactive)
REMARK    1  A    between atoms: C1_1  and  C2_2 
REMARK    2  A    between atoms: C6_6  and  C8_9 
REMARK    3  A    between atoms: C7_7  and  O1_8 
ROOT
ATOM      1  C2  <0> d           0.002  -0.004   0.002  0.00  0.00    -0.028 A 
ATOM      2  C3  <0> d           0.006  -0.687  -1.198  0.00  0.00    -0.074 A 
ATOM      3  C4  <0> d           0.025  -2.072  -1.217  0.00  0.00    -0.081 A 
ATOM      4  C5  <0> d           0.040  -2.784  -0.038  0.00  0.00    -0.064 A 
ATOM      5  C6  <0> d           0.037  -2.106   1.185  0.00  0.00     0.074 A 
ATOM      6  C7  <0> d           0.023  -0.703   1.200  0.00  0.00     0.088 A 
ATOM      7  H4  <0> d          -0.006  -0.138  -2.128  0.00  0.00     0.084 H 
ATOM      8  H5  <0> d           0.027  -2.597  -2.161  0.00  0.00     0.083 H 
ATOM      9  H6  <0> d           0.053  -3.864  -0.058  0.00  0.00     0.085 H 
ENDROOT
BRANCH   1  10
ATOM     10  C1  <0> d          -0.018   1.503   0.010  0.00  0.00    -0.049 C 
ATOM     11  H1  <0> d           1.004   1.880   0.003  0.00  0.00     0.033 H 
ATOM     12  H2  <0> d          -0.545   1.864  -0.873  0.00  0.00     0.033 H 
ATOM     13  H3  <0> d          -0.529   1.854   0.907  0.00  0.00     0.033 H 
ENDBRANCH   1  10
BRANCH   6  14
ATOM     14  O1  <0> d           0.025  -0.034   2.379  0.00  0.00    -0.359 OA
ATOM     15  H7  <0> d          -0.858   0.149   2.729  0.00  0.00     0.217 HD
ENDBRANCH   6  14
BRANCH   5  16
ATOM     16  C8  <0> d           0.052  -2.860   2.449  0.00  0.00     0.212 C 
ATOM     17  O2  <0> d           0.068  -4.083   2.432  0.00  0.00    -0.644 OA
ATOM     18  O3  <0> d           0.050  -2.263   3.517  0.00  0.00    -0.644 OA
ENDBRANCH   5  16
TORSDOF 3
