REMARK  2 active torsions:
REMARK  status: ('A' for Active; 'I' for Inactive)
REMARK    1  A    between atoms: C2_2  and  C3_3 
REMARK    2  A    between atoms: C3_3  and  N1_4 
ROOT
ATOM      1  N1  <0> d           0.002  -0.004   0.002  0.00  0.00    -0.184 N 
ATOM      2  N2  <0> d          -0.015   1.283   0.009  0.00  0.00    -0.153 NA
ATOM      3  C4  <0> d           1.231   1.728  -0.000  0.00  0.00     0.109 A 
ATOM      4  C5  <0> d           1.865   2.983  -0.000  0.00  0.00    -0.051 A 
ATOM      5  C6  <0> d           3.223   3.046  -0.014  0.00  0.00    -0.081 A 
ATOM      6  C7  <0> d           4.011   1.894  -0.027  0.00  0.00    -0.081 A 
ATOM      7  C8  <0> d           3.461   0.652  -0.028  0.00  0.00    -0.051 A 
ATOM      8  C9  <0> d           2.062   0.515  -0.015  0.00  0.00     0.109 A 
ATOM      9  N3  <0> d           1.196  -0.486  -0.012  0.00  0.00    -0.153 NA
ATOM     10  H6  <0> d           1.279   3.889   0.010  0.00  0.00     0.087 H 
ATOM     11  H7  <0> d           3.704   4.013  -0.014  0.00  0.00     0.083 H 
ATOM     12  H8  <0> d           5.086   1.993  -0.037  0.00  0.00     0.083 H 
ATOM     13  H9  <0> d           4.093  -0.223  -0.039  0.00  0.00     0.087 H 
ENDROOT
BRANCH   1  14
ATOM     14  C3  <0> d          -1.207  -0.832   0.010  0.00  0.00     0.049 C 
ATOM     15  H4  <0> d          -0.999  -1.774   0.517  0.00  0.00     0.076 H 
ATOM     16  H5  <0> d          -2.004  -0.305   0.535  0.00  0.00     0.076 H 
BRANCH  14  17
ATOM     17  C2  <0> d          -1.636  -1.108  -1.408  0.00  0.00    -0.092 C 
ATOM     18  C1  <0> d          -1.801  -2.342  -1.814  0.00  0.00    -0.123 C 
ATOM     19  H1  <0> d          -1.631  -3.162  -1.132  0.00  0.00     0.066 H 
ATOM     20  H2  <0> d          -2.109  -2.540  -2.830  0.00  0.00     0.066 H 
ATOM     21  H3  <0> d          -1.807  -0.288  -2.090  0.00  0.00     0.078 H 
ENDBRANCH  14  17
ENDBRANCH   1  14
TORSDOF 2
