REMARK  3 active torsions:
REMARK  status: ('A' for Active; 'I' for Inactive)
REMARK    1  A    between atoms: C1_1  and  C2_2 
REMARK    2  A    between atoms: C4_4  and  N4_11 
REMARK    3  A    between atoms: C5_6  and  N3_10 
ROOT
ATOM      1  C2  <0> d          -1.213   1.755   0.017  0.00  0.00    -0.034 A 
ATOM      2  C3  <0> d          -0.013   1.076   0.008  0.00  0.00    -0.032 A 
ATOM      3  C4  <0> d           1.181   1.795   0.000  0.00  0.00     0.124 A 
ATOM      4  N1  <0> d           1.181   3.120   0.007  0.00  0.00    -0.213 NA
ATOM      5  C5  <0> d           0.055   3.815   0.021  0.00  0.00     0.145 A 
ATOM      6  C6  <0> d          -1.188   3.157   0.029  0.00  0.00     0.096 A 
ATOM      7  C7  <0> d          -2.407   3.907   0.044  0.00  0.00     0.104 C 
ATOM      8  N2  <0> d          -3.375   4.502   0.055  0.00  0.00    -0.191 NA
ATOM      9  H4  <0> d           0.002  -0.004   0.002  0.00  0.00     0.090 H 
ENDROOT
BRANCH   1  10
ATOM     10  C1  <0> d          -2.522   1.008   0.019  0.00  0.00    -0.050 C 
ATOM     11  H1  <0> d          -2.326  -0.075   0.009  0.00  0.00     0.033 H 
ATOM     12  H2  <0> d          -3.103   1.284  -0.873  0.00  0.00     0.033 H 
ATOM     13  H3  <0> d          -3.092   1.268   0.923  0.00  0.00     0.033 H 
ENDBRANCH   1  10
BRANCH   5  14
ATOM     14  N3  <0> d           0.101   5.198   0.027  0.00  0.00    -0.383 N 
ATOM     15  H5  <0> d          -0.833   5.779   0.038  0.00  0.00     0.157 HD
ATOM     16  H6  <0> d           1.071   5.716   0.020  0.00  0.00     0.157 HD
ENDBRANCH   5  14
BRANCH   3  17
ATOM     17  N4  <0> d           2.387   1.113  -0.014  0.00  0.00    -0.384 N 
ATOM     18  H7  <0> d           3.335   1.672  -0.020  0.00  0.00     0.157 HD
ATOM     19  H8  <0> d           2.398   0.013  -0.020  0.00  0.00     0.157 HD
ENDBRANCH   3  17
TORSDOF 3
