REMARK  4 active torsions:
REMARK  status: ('A' for Active; 'I' for Inactive)
REMARK    1  A    between atoms: C1_1  and  N1_2 
REMARK    2  A    between atoms: N1_2  and  C2_3 
REMARK    3  A    between atoms: C4_5  and  O1_9 
REMARK    4  A    between atoms: O1_9  and  C6_10 
ROOT
ATOM      1  C2  <0> d          -0.017   1.389   0.010  0.00  0.00     0.128 A 
ATOM      2  C3  <0> d           0.002  -0.004   0.002  0.00  0.00     0.012 A 
ATOM      3  C4  <0> d           1.234  -0.645  -0.013  0.00  0.00     0.168 A 
ATOM      4  N2  <0> d           2.344   0.087  -0.020  0.00  0.00    -0.218 NA
ATOM      5  C5  <0> d           2.287   1.403  -0.012  0.00  0.00     0.091 A 
ATOM      6  N3  <0> d           1.139   2.050   0.002  0.00  0.00    -0.225 NA
ATOM      7  H5  <0> d          -0.917  -0.571   0.008  0.00  0.00     0.096 H 
ATOM      8  H6  <0> d           3.207   1.969  -0.018  0.00  0.00     0.146 H 
ENDROOT
BRANCH   1   9
ATOM      9  N1  <0> d          -1.220   2.076   0.019  0.00  0.00    -0.379 N 
ATOM     10  H4  <0> d          -1.226   3.176   0.025  0.00  0.00     0.160 HD
BRANCH   9  11
ATOM     11  C1  <0> d          -2.486   1.337   0.021  0.00  0.00    -0.020 C 
ATOM     12  H1  <0> d          -3.325   2.048   0.029  0.00  0.00     0.056 H 
ATOM     13  H2  <0> d          -2.536   0.699   0.916  0.00  0.00     0.056 H 
ATOM     14  H3  <0> d          -2.545   0.709  -0.880  0.00  0.00     0.056 H 
ENDBRANCH   9  11
ENDBRANCH   1   9
BRANCH   3  15
ATOM     15  O1  <0> d           1.304  -1.999  -0.022  0.00  0.00    -0.339 OA
BRANCH  15  16
ATOM     16  C6  <0> d           2.609  -2.581  -0.037  0.00  0.00     0.012 C 
ATOM     17  H7  <0> d           2.521  -3.678  -0.043  0.00  0.00     0.067 H 
ATOM     18  H8  <0> d           3.163  -2.262   0.858  0.00  0.00     0.067 H 
ATOM     19  H9  <0> d           3.146  -2.252  -0.938  0.00  0.00     0.067 H 
ENDBRANCH  15  16
ENDBRANCH   3  15
TORSDOF 4
