REMARK  4 active torsions:
REMARK  status: ('A' for Active; 'I' for Inactive)
REMARK    1  A    between atoms: C1_1  and  C2_2 
REMARK    2  A    between atoms: C2_2  and  N1_3 
REMARK    3  A    between atoms: C4_5  and  C8_12 
REMARK    4  A    between atoms: C5_8  and  C7_11 
ROOT
ATOM      1  N1  <0> d           0.690  -0.478  -1.207  0.00  0.00     0.093 N 
ATOM      2  C3  <0> d          -0.075  -0.138  -2.415  0.00  0.00     0.137 C 
ATOM      3  C4  <0> d           0.704  -0.596  -3.651  0.00  0.00     0.061 C 
ATOM      4  H1  <0> d           0.115  -0.398  -4.547  0.00  0.00     0.085 H 
ATOM      5  O1  <0> d           0.965  -1.999  -3.552  0.00  0.00    -0.378 OA
ATOM      6  C5  <0> d           1.708  -2.365  -2.386  0.00  0.00     0.061 C 
ATOM      7  H2  <0> d           2.681  -1.874  -2.406  0.00  0.00     0.085 H 
ATOM      8  C6  <0> d           0.940  -1.925  -1.138  0.00  0.00     0.137 C 
ATOM      9  H8  <0> d          -1.042  -0.641  -2.387  0.00  0.00     0.083 H 
ATOM     10  H9  <0> d          -0.227   0.940  -2.459  0.00  0.00     0.083 H 
ATOM     11  H10 <0> d           1.529  -2.151  -0.249  0.00  0.00     0.083 H 
ATOM     12  H11 <0> d          -0.011  -2.457  -1.089  0.00  0.00     0.083 H 
ENDROOT
BRANCH   1  13
ATOM     13  C2  <0> d           0.002  -0.004   0.002  0.00  0.00     0.110 C 
ATOM     14  H6  <0> d           0.529  -0.365   0.885  0.00  0.00     0.079 H 
ATOM     15  H7  <0> d          -1.020  -0.381   0.010  0.00  0.00     0.079 H 
BRANCH  13  16
ATOM     16  C1  <0> d          -0.019   1.526   0.010  0.00  0.00    -0.051 C 
ATOM     17  H3  <0> d           1.004   1.903   0.003  0.00  0.00     0.029 H 
ATOM     18  H4  <0> d          -0.546   1.887  -0.873  0.00  0.00     0.029 H 
ATOM     19  H5  <0> d          -0.529   1.877   0.907  0.00  0.00     0.029 H 
ENDBRANCH  13  16
ENDBRANCH   1  13
BRANCH   6  20
ATOM     20  C7  <0> d           1.903  -3.882  -2.360  0.00  0.00    -0.051 C 
ATOM     21  H12 <0> d           2.447  -4.194  -3.251  0.00  0.00     0.030 H 
ATOM     22  H13 <0> d           2.470  -4.160  -1.472  0.00  0.00     0.030 H 
ATOM     23  H14 <0> d           0.929  -4.373  -2.338  0.00  0.00     0.030 H 
ENDBRANCH   6  20
BRANCH   3  24
ATOM     24  C8  <0> d           2.028   0.166  -3.732  0.00  0.00    -0.051 C 
ATOM     25  H15 <0> d           2.617  -0.033  -2.837  0.00  0.00     0.030 H 
ATOM     26  H16 <0> d           2.582  -0.160  -4.612  0.00  0.00     0.030 H 
ATOM     27  H17 <0> d           1.828   1.235  -3.804  0.00  0.00     0.030 H 
ENDBRANCH   3  24
TORSDOF 4
