REMARK  0 active torsions:
REMARK  status: ('A' for Active; 'I' for Inactive)
ROOT
ATOM      1  C1  <0> d          -0.017   1.385   0.010  0.00  0.00    -0.041 A 
ATOM      2  C2  <0> d           1.191   2.062   0.002  0.00  0.00    -0.042 A 
ATOM      3  C3  <0> d           2.378   1.330  -0.013  0.00  0.00     0.136 A 
ATOM      4  N1  <0> d           2.353   0.002  -0.020  0.00  0.00    -0.247 NA
ATOM      5  C4  <0> d           1.221  -0.667  -0.013  0.00  0.00     0.041 A 
ATOM      6  C5  <0> d           0.002  -0.004   0.002  0.00  0.00     0.134 A 
ATOM      7  F1  <0> d          -1.155  -0.702   0.010  0.00  0.00    -0.205 F 
ATOM      8  C6  <0> d           3.635   2.016  -0.022  0.00  0.00     0.119 C 
ATOM      9  N2  <0> d           4.632   2.561  -0.028  0.00  0.00    -0.190 NA
ATOM     10  H1  <0> d          -0.952   1.925   0.017  0.00  0.00     0.088 H 
ATOM     11  H2  <0> d           1.213   3.141   0.007  0.00  0.00     0.088 H 
ATOM     12  H3  <0> d           1.240  -1.747  -0.019  0.00  0.00     0.119 H 
ENDROOT
TORSDOF 0
