REMARK  3 active torsions:
REMARK  status: ('A' for Active; 'I' for Inactive)
REMARK    1  A    between atoms: C2_2  and  C3_3 
REMARK    2  A    between atoms: C3_3  and  O1_4 
REMARK    3  A    between atoms: O1_4  and  C4_5 
ROOT
ATOM      1  C4  <0> d          -2.212   1.122  -1.172  0.00  0.00     0.131 C 
ATOM      2  H1  <0> d          -2.241   0.033  -1.193  0.00  0.00     0.129 H 
ATOM      3  C5  <0> d          -0.757   1.595  -1.230  0.00  0.00    -0.019 C 
ATOM      4  C6  <0> d          -0.013   1.086   0.008  0.00  0.00    -0.059 C 
ATOM      5  C7  <0> d          -0.733   1.582   1.266  0.00  0.00    -0.045 C 
ATOM      6  C8  <0> d          -2.191   1.109   1.226  0.00  0.00     0.023 C 
ATOM      7  O2  <0> d          -2.816   1.591   0.035  0.00  0.00    -0.361 OA
ATOM      8  H7  <0> d          -0.729   2.684  -1.250  0.00  0.00     0.040 H 
ATOM      9  H8  <0> d          -0.281   1.202  -2.128  0.00  0.00     0.040 H 
ATOM     10  H9  <0> d           0.002  -0.004   0.002  0.00  0.00     0.033 H 
ATOM     11  H10 <0> d           1.009   1.464   0.000  0.00  0.00     0.033 H 
ATOM     12  H11 <0> d          -0.241   1.178   2.150  0.00  0.00     0.036 H 
ATOM     13  H12 <0> d          -0.705   2.671   1.296  0.00  0.00     0.036 H 
ATOM     14  H13 <0> d          -2.721   1.495   2.097  0.00  0.00     0.074 H 
ATOM     15  H14 <0> d          -2.220   0.019   1.236  0.00  0.00     0.074 H 
ENDROOT
BRANCH   1  16
ATOM     16  O1  <0> d          -2.927   1.640  -2.295  0.00  0.00    -0.358 OA
BRANCH  16  17
ATOM     17  C3  <0> d          -4.271   1.165  -2.398  0.00  0.00     0.037 C 
ATOM     18  H5  <0> d          -4.266   0.079  -2.493  0.00  0.00     0.080 H 
ATOM     19  H6  <0> d          -4.826   1.450  -1.505  0.00  0.00     0.080 H 
BRANCH  17  20
ATOM     20  C2  <0> d          -4.926   1.772  -3.612  0.00  0.00    -0.089 C 
ATOM     21  C1  <0> d          -5.636   1.021  -4.418  0.00  0.00    -0.123 C 
ATOM     22  H2  <0> d          -6.106   1.456  -5.287  0.00  0.00     0.066 H 
ATOM     23  H3  <0> d          -5.751  -0.033  -4.212  0.00  0.00     0.066 H 
ATOM     24  H4  <0> d          -4.811   2.826  -3.817  0.00  0.00     0.078 H 
ENDBRANCH  17  20
ENDBRANCH  16  17
ENDBRANCH   1  16
TORSDOF 3
