REMARK  3 active torsions:
REMARK  status: ('A' for Active; 'I' for Inactive)
REMARK    1  A    between atoms: C1_1  and  C2_2 
REMARK    2  A    between atoms: C5_5  and  C9_9 
REMARK    3  A    between atoms: C7_7  and  C8_8 
REMARK       I    between atoms: C9_9  and  N1_11 
ROOT
ATOM      1  C2  <0> d          -3.721   3.285   0.038  0.00  0.00    -0.056 A 
ATOM      2  C3  <0> d          -2.534   3.996   0.036  0.00  0.00    -0.076 A 
ATOM      3  C4  <0> d          -1.327   3.329   0.032  0.00  0.00    -0.067 A 
ATOM      4  C5  <0> d          -1.305   1.933   0.019  0.00  0.00     0.032 A 
ATOM      5  C6  <0> d          -2.506   1.222   0.021  0.00  0.00    -0.061 A 
ATOM      6  C7  <0> d          -3.706   1.902   0.030  0.00  0.00    -0.055 A 
ATOM      7  H4  <0> d          -2.553   5.076   0.042  0.00  0.00     0.084 H 
ATOM      8  H5  <0> d          -0.401   3.885   0.035  0.00  0.00     0.085 H 
ATOM      9  H6  <0> d          -2.495   0.142   0.015  0.00  0.00     0.085 H 
ENDROOT
BRANCH   4  10
ATOM     10  C9  <0> d          -0.014   1.211   0.009  0.00  0.00     0.249 C 
ATOM     11  O1  <0> d           0.002  -0.004   0.002  0.00  0.00    -0.268 OA
ATOM     12  N1  <0> d           1.143   1.901   0.001  0.00  0.00    -0.366 N 
ATOM     13  H10 <0> d           1.990   1.427  -0.009  0.00  0.00     0.159 HD
ATOM     14  H11 <0> d           1.130   2.871   0.007  0.00  0.00     0.159 HD
ENDBRANCH   4  10
BRANCH   6  15
ATOM     15  C8  <0> d          -5.004   1.135   0.032  0.00  0.00    -0.051 C 
ATOM     16  H7  <0> d          -5.312   0.945   1.060  0.00  0.00     0.033 H 
ATOM     17  H8  <0> d          -5.772   1.720  -0.474  0.00  0.00     0.033 H 
ATOM     18  H9  <0> d          -4.867   0.187  -0.488  0.00  0.00     0.033 H 
ENDBRANCH   6  15
BRANCH   1  19
ATOM     19  C1  <0> d          -5.037   4.021   0.048  0.00  0.00    -0.051 C 
ATOM     20  H1  <0> d          -5.349   4.192   1.078  0.00  0.00     0.033 H 
ATOM     21  H2  <0> d          -4.921   4.978  -0.461  0.00  0.00     0.033 H 
ATOM     22  H3  <0> d          -5.790   3.424  -0.466  0.00  0.00     0.033 H 
ENDBRANCH   1  19
TORSDOF 3
