REMARK  2 active torsions:
REMARK  status: ('A' for Active; 'I' for Inactive)
REMARK    1  A    between atoms: C1_1  and  N4_5 
REMARK    2  A    between atoms: N4_5  and  C2_6 
ROOT
ATOM      1  N4  <0> d           1.776  -1.652  -0.025  0.00  0.00    -0.009 N 
ATOM      2  H1  <0> d           1.167  -2.407  -0.023  0.00  0.00     0.203 HD
ENDROOT
BRANCH   1   3
ATOM      3  C1  <0> d           1.273  -0.348  -0.012  0.00  0.00     0.780 A 
ATOM      4  N3  <0> d           1.992   0.775  -0.013  0.00  0.00     0.067 NA
ATOM      5  N2  <0> d           1.210   1.795   0.000  0.00  0.00    -0.006 NA
ATOM      6  N8  <0> d          -0.005   1.391   0.009  0.00  0.00    -0.006 NA
ATOM      7  N1  <0> d           0.002  -0.004   0.002  0.00  0.00     0.067 NA
ENDBRANCH   1   3
BRANCH   1   8
ATOM      8  C2  <0> d           3.156  -1.868  -0.039  0.00  0.00     0.780 A 
ATOM      9  N7  <0> d           4.102  -0.927  -0.048  0.00  0.00     0.067 NA
ATOM     10  N6  <0> d           5.265  -1.476  -0.056  0.00  0.00    -0.006 NA
ATOM     11  N9  <0> d           5.127  -2.749  -0.062  0.00  0.00    -0.006 NA
ATOM     12  N5  <0> d           3.761  -3.037  -0.051  0.00  0.00     0.067 NA
ENDBRANCH   1   8
TORSDOF 2
