REMARK  0 active torsions:
REMARK  status: ('A' for Active; 'I' for Inactive)
ROOT
ATOM      1  C1  <0> d           3.643   1.067  -0.027  0.00  0.00    -0.052 A 
ATOM      2  C2  <0> d           4.123   2.363  -0.025  0.00  0.00     0.003 A 
ATOM      3  N1  <0> d           3.298   3.390  -0.011  0.00  0.00    -0.273 NA
ATOM      4  C3  <0> d           1.989   3.237   0.001  0.00  0.00     0.009 A 
ATOM      5  C4  <0> d           1.422   1.976  -0.001  0.00  0.00    -0.026 A 
ATOM      6  C5  <0> d           2.256   0.858  -0.015  0.00  0.00     0.019 A 
ATOM      7  C6  <0> d           1.464  -0.384  -0.014  0.00  0.00     0.160 A 
ATOM      8  O1  <0> d           1.906  -1.509  -0.024  0.00  0.00    -0.292 OA
ATOM      9  C7  <0> d           0.002  -0.004   0.002  0.00  0.00    -0.001 A 
ATOM     10  C8  <0> d          -0.019   1.531   0.011  0.00  0.00    -0.032 A 
ATOM     11  H1  <0> d           4.325   0.230  -0.038  0.00  0.00     0.087 H 
ATOM     12  H2  <0> d           5.189   2.536  -0.034  0.00  0.00     0.114 H 
ATOM     13  H3  <0> d           1.351   4.109   0.011  0.00  0.00     0.115 H 
ATOM     14  H4  <0> d          -0.492  -0.409  -0.894  0.00  0.00     0.045 H 
ATOM     15  H5  <0> d          -0.475  -0.419   0.902  0.00  0.00     0.045 H 
ATOM     16  H6  <0> d          -0.513   1.914   0.915  0.00  0.00     0.040 H 
ATOM     17  H7  <0> d          -0.531   1.923  -0.881  0.00  0.00     0.040 H 
ENDROOT
TORSDOF 0
