REMARK  4 active torsions:
REMARK  status: ('A' for Active; 'I' for Inactive)
REMARK    1  A    between atoms: C1_1  and  C2_2 
REMARK    2  A    between atoms: C2_2  and  C3_4 
REMARK    3  A    between atoms: C2_2  and  O1_10 
REMARK    4  A    between atoms: C3_4  and  N1_5 
ROOT
ATOM      1  C3  <0> d          -0.750   3.109   1.275  0.00  0.00     0.024 C 
ATOM      2  H5  <0> d           0.270   3.486   1.357  0.00  0.00     0.068 H 
ATOM      3  H6  <0> d          -1.198   3.471   0.350  0.00  0.00     0.068 H 
ENDROOT
BRANCH   1   4
ATOM      4  C2  <0> d          -0.729   1.579   1.267  0.00  0.00     0.048 C 
ATOM      5  H1  <0> d          -1.751   1.202   1.275  0.00  0.00     0.084 H 
BRANCH   4   6
ATOM      6  C1  <0> d          -0.013   1.086   0.008  0.00  0.00    -0.051 C 
ATOM      7  H2  <0> d           0.002  -0.004   0.002  0.00  0.00     0.030 H 
ATOM      8  H3  <0> d           1.010   1.463   0.000  0.00  0.00     0.030 H 
ATOM      9  H4  <0> d          -0.540   1.447  -0.875  0.00  0.00     0.030 H 
ENDBRANCH   4   6
BRANCH   4  10
ATOM     10  O1  <0> d          -0.038   1.106   2.425  0.00  0.00    -0.394 OA
ATOM     11  H10 <0> d           0.014   0.142   2.485  0.00  0.00     0.210 HD
ENDBRANCH   4  10
ENDBRANCH   1   4
BRANCH   1  12
ATOM     12  N1  <0> d          -1.538   3.580   2.417  0.00  0.00    -0.348 N 
ATOM     13  C6  <0> d          -2.864   3.835   2.425  0.00  0.00     0.065 A 
ATOM     14  N2  <0> d          -3.206   4.233   3.619  0.00  0.00    -0.255 NA
ATOM     15  H9  <0> d          -3.531   3.725   1.582  0.00  0.00     0.143 H 
ATOM     16  C5  <0> d          -2.120   4.255   4.406  0.00  0.00     0.018 A 
ATOM     17  C4  <0> d          -1.066   3.851   3.673  0.00  0.00    -0.003 A 
ATOM     18  H8  <0> d          -2.096   4.547   5.446  0.00  0.00     0.117 H 
ATOM     19  H7  <0> d          -0.044   3.758   4.011  0.00  0.00     0.113 H 
ENDBRANCH   1  12
TORSDOF 4
