REMARK  0 active torsions:
REMARK  status: ('A' for Active; 'I' for Inactive)
ROOT
ATOM      1  C1  <0> d           2.450   1.351  -0.014  0.00  0.00    -0.039 A 
ATOM      2  C2  <0> d           2.366   0.002  -0.021  0.00  0.00     0.004 A 
ATOM      3  N1  <0> d           1.178  -0.649  -0.013  0.00  0.00    -0.272 NA
ATOM      4  C3  <0> d           0.002  -0.004   0.002  0.00  0.00     0.018 A 
ATOM      5  C4  <0> d          -0.017   1.376   0.010  0.00  0.00     0.058 A 
ATOM      6  C5  <0> d          -1.259   2.160   0.032  0.00  0.00     0.187 A 
ATOM      7  O1  <0> d          -2.357   1.621   0.044  0.00  0.00    -0.287 OA
ATOM      8  C6  <0> d          -1.123   3.559   0.033  0.00  0.00    -0.019 A 
ATOM      9  C7  <0> d           0.128   4.130   0.024  0.00  0.00    -0.019 A 
ATOM     10  N2  <0> d           1.248   3.434   0.009  0.00  0.00    -0.365 N 
ATOM     11  C8  <0> d           1.256   2.106   0.001  0.00  0.00     0.049 A 
ATOM     12  H1  <0> d           3.412   1.842  -0.021  0.00  0.00     0.089 H 
ATOM     13  H2  <0> d           3.278  -0.577  -0.033  0.00  0.00     0.114 H 
ATOM     14  H3  <0> d          -0.923  -0.560   0.008  0.00  0.00     0.116 H 
ATOM     15  H4  <0> d          -2.002   4.186   0.045  0.00  0.00     0.091 H 
ATOM     16  H5  <0> d           0.197   5.208   0.030  0.00  0.00     0.111 H 
ATOM     17  H6  <0> d           2.218   3.953   0.003  0.00  0.00     0.165 HD
ENDROOT
TORSDOF 0
