REMARK  3 active torsions:
REMARK  status: ('A' for Active; 'I' for Inactive)
REMARK    1  A    between atoms: C1_1  and  C2_2 
REMARK    2  A    between atoms: C2_2  and  S1_3 
REMARK    3  A    between atoms: S1_3  and  C3_4 
ROOT
ATOM      1  C3  <0> d           0.002  -0.004   0.002  0.00  0.00     0.041 A 
ATOM      2  C4  <0> d          -1.045  -0.877   0.013  0.00  0.00    -0.060 A 
ATOM      3  C5  <0> d          -0.779  -2.235  -0.002  0.00  0.00    -0.075 A 
ATOM      4  C6  <0> d           0.508  -2.654  -0.016  0.00  0.00    -0.044 A 
ATOM      5  S2  <0> d           1.404  -1.110  -0.017  0.00  0.00    -0.095 SA
ATOM      6  H6  <0> d          -2.062  -0.516   0.030  0.00  0.00     0.086 H 
ATOM      7  H7  <0> d          -1.588  -2.951   0.002  0.00  0.00     0.084 H 
ATOM      8  H8  <0> d           0.894  -3.663  -0.024  0.00  0.00     0.095 H 
ENDROOT
BRANCH   1   9
ATOM      9  S1  <0> d          -0.022   1.758   0.012  0.00  0.00    -0.123 SA
BRANCH   9  10
ATOM     10  C2  <0> d           1.732   2.220  -0.003  0.00  0.00    -0.021 C 
ATOM     11  H4  <0> d           2.210   1.817  -0.908  0.00  0.00     0.048 H 
ATOM     12  H5  <0> d           2.228   1.808   0.889  0.00  0.00     0.048 H 
BRANCH  10  13
ATOM     13  C1  <0> d           1.857   3.745   0.004  0.00  0.00    -0.068 C 
ATOM     14  H1  <0> d           2.921   4.026  -0.004  0.00  0.00     0.028 H 
ATOM     15  H2  <0> d           1.379   4.148   0.909  0.00  0.00     0.028 H 
ATOM     16  H3  <0> d           1.362   4.158  -0.887  0.00  0.00     0.028 H 
ENDBRANCH  10  13
ENDBRANCH   9  10
ENDBRANCH   1   9
TORSDOF 3
