REMARK  2 active torsions:
REMARK  status: ('A' for Active; 'I' for Inactive)
REMARK    1  A    between atoms: C1_1  and  S1_2 
REMARK    2  A    between atoms: S1_2  and  C2_3 
ROOT
ATOM      1  C2  <0> d           1.240  -0.448  -0.012  0.00  0.00     0.233 A 
ATOM      2  N1  <0> d           1.187   1.744   0.000  0.00  0.00    -0.021 NA
ATOM      3  N2  <0> d          -0.015   1.280   0.009  0.00  0.00    -0.021 NA
ATOM      4  N3  <0> d           0.002  -0.004   0.002  0.00  0.00    -0.100 NA
ATOM      5  N4  <0> d           2.024   0.636  -0.014  0.00  0.00    -0.100 NA
ENDROOT
BRANCH   1   6
ATOM      6  S1  <0> d           1.747  -2.135  -0.027  0.00  0.00    -0.091 SA
BRANCH   6   7
ATOM      7  C1  <0> d           0.131  -2.950  -0.015  0.00  0.00    -0.027 C 
ATOM      8  H1  <0> d          -0.416  -2.659   0.882  0.00  0.00     0.042 H 
ATOM      9  H2  <0> d          -0.433  -2.649  -0.898  0.00  0.00     0.042 H 
ATOM     10  H3  <0> d           0.269  -4.031  -0.023  0.00  0.00     0.042 H 
ENDBRANCH   6   7
ENDBRANCH   1   6
TORSDOF 2
