REMARK  1 active torsions:
REMARK  status: ('A' for Active; 'I' for Inactive)
REMARK    1  A    between atoms: C1_1  and  C2_2 
ROOT
ATOM      1  C2  <0> d           1.171   2.086   0.002  0.00  0.00    -0.062 A 
ATOM      2  C3  <0> d          -0.017   1.378   0.010  0.00  0.00    -0.076 A 
ATOM      3  C4  <0> d           0.002  -0.004   0.002  0.00  0.00    -0.061 A 
ATOM      4  C5  <0> d           1.210  -0.679  -0.013  0.00  0.00     0.034 A 
ATOM      5  C6  <0> d           2.398   0.030  -0.021  0.00  0.00    -0.061 A 
ATOM      6  C7  <0> d           2.378   1.412  -0.013  0.00  0.00    -0.076 A 
ATOM      7 Cl1  <0> d           1.234  -2.415  -0.022  0.00  0.00    -0.084 Cl
ATOM      8  H4  <0> d          -0.959   1.905   0.017  0.00  0.00     0.084 H 
ATOM      9  H5  <0> d          -0.926  -0.557   0.008  0.00  0.00     0.086 H 
ATOM     10  H6  <0> d           3.341  -0.497  -0.032  0.00  0.00     0.086 H 
ATOM     11  H7  <0> d           3.305   1.965  -0.019  0.00  0.00     0.084 H 
ENDROOT
BRANCH   1  12
ATOM     12  C1  <0> d           1.150   3.592   0.010  0.00  0.00    -0.051 C 
ATOM     13  H1  <0> d           1.154   3.951   1.039  0.00  0.00     0.033 H 
ATOM     14  H2  <0> d           2.030   3.971  -0.510  0.00  0.00     0.033 H 
ATOM     15  H3  <0> d           0.250   3.946  -0.494  0.00  0.00     0.033 H 
ENDBRANCH   1  12
TORSDOF 1
