REMARK  0 active torsions:
REMARK  status: ('A' for Active; 'I' for Inactive)
ROOT
ATOM      1  C1  <0> d           1.177   1.782   0.000  0.00  0.00    -0.079 A 
ATOM      2  C2  <0> d           1.165   3.159   0.008  0.00  0.00    -0.069 A 
ATOM      3  C3  <0> d          -0.055   3.853   0.023  0.00  0.00     0.019 A 
ATOM      4  C4  <0> d          -1.250   3.134   0.030  0.00  0.00    -0.005 A 
ATOM      5  C5  <0> d          -1.223   1.750   0.017  0.00  0.00     0.123 A 
ATOM      6  C6  <0> d          -0.013   1.076   0.008  0.00  0.00    -0.045 A 
ATOM      7  F1  <0> d          -2.381   1.054   0.019  0.00  0.00    -0.206 F 
ATOM      8  C7  <0> d          -2.417   4.092   0.045  0.00  0.00    -0.031 A 
ATOM      9  C8  <0> d          -1.816   5.504   0.046  0.00  0.00    -0.001 A 
ATOM     10  C9  <0> d          -0.320   5.301   0.032  0.00  0.00     0.160 A 
ATOM     11  O1  <0> d           0.517   6.178   0.029  0.00  0.00    -0.292 OA
ATOM     12  H1  <0> d           2.118   1.252  -0.011  0.00  0.00     0.083 H 
ATOM     13  H2  <0> d           2.096   3.707   0.002  0.00  0.00     0.085 H 
ATOM     14  H3  <0> d           0.002  -0.004   0.002  0.00  0.00     0.088 H 
ATOM     15  H4  <0> d          -3.032   3.947  -0.843  0.00  0.00     0.041 H 
ATOM     16  H5  <0> d          -3.015   3.939   0.944  0.00  0.00     0.041 H 
ATOM     17  H6  <0> d          -2.133   6.001  -0.761  0.00  0.00     0.045 H 
ATOM     18  H7  <0> d          -2.117   6.042   0.945  0.00  0.00     0.045 H 
ENDROOT
TORSDOF 0
