REMARK  1 active torsions:
REMARK  status: ('A' for Active; 'I' for Inactive)
REMARK    1  A    between atoms: C1_1  and  C2_2 
ROOT
ATOM      1  C2  <0> d           3.330   2.616  -0.014  0.00  0.00     0.032 A 
ATOM      2  C3  <0> d           2.474   1.537  -0.012  0.00  0.00    -0.033 A 
ATOM      3  C4  <0> d           1.100   1.768   0.001  0.00  0.00     0.045 A 
ATOM      4  C5  <0> d           0.651   3.105   0.012  0.00  0.00     0.009 A 
ATOM      5  C6  <0> d          -0.811   3.038   0.025  0.00  0.00    -0.055 A 
ATOM      6  C7  <0> d          -1.143   1.737   0.016  0.00  0.00    -0.022 A 
ATOM      7  N1  <0> d          -0.011   0.966   0.007  0.00  0.00    -0.365 N 
ATOM      8  H1  <0> d           0.002  -0.004   0.002  0.00  0.00     0.165 HD
ATOM      9  C8  <0> d           1.588   4.136   0.009  0.00  0.00     0.015 A 
ATOM     10  N2  <0> d           2.876   3.858  -0.004  0.00  0.00    -0.265 NA
ATOM     11  H5  <0> d           2.861   0.529  -0.020  0.00  0.00     0.090 H 
ATOM     12  H6  <0> d          -1.493   3.875   0.035  0.00  0.00     0.087 H 
ATOM     13  H7  <0> d          -2.153   1.355   0.019  0.00  0.00     0.111 H 
ATOM     14  H8  <0> d           1.258   5.164   0.017  0.00  0.00     0.116 H 
ENDROOT
BRANCH   1  15
ATOM     15  C1  <0> d           4.818   2.376  -0.028  0.00  0.00    -0.035 C 
ATOM     16  H2  <0> d           5.185   2.313   0.996  0.00  0.00     0.035 H 
ATOM     17  H3  <0> d           5.030   1.442  -0.548  0.00  0.00     0.035 H 
ATOM     18  H4  <0> d           5.314   3.199  -0.542  0.00  0.00     0.035 H 
ENDBRANCH   1  15
TORSDOF 1
