REMARK  10 active torsions:
REMARK  status: ('A' for Active; 'I' for Inactive)
REMARK    1  A    between atoms: C1_1  and  C2_2 
REMARK    2  A    between atoms: C2_2  and  C3_3 
REMARK    3  A    between atoms: C3_3  and  C4_5 
REMARK    4  A    between atoms: C3_3  and  C5_6 
REMARK    5  A    between atoms: C5_6  and  C6_7 
REMARK    6  A    between atoms: C6_7  and  C7_8 
REMARK    7  A    between atoms: C7_8  and  C8_9 
REMARK    8  A    between atoms: C7_8  and  C9_10 
REMARK    9  A    between atoms: C7_8  and  O1_12 
REMARK   10  A    between atoms: C9_10  and  C10_11 
ROOT
ATOM      1  C6  <0> d           0.184   1.261   4.992  0.00  0.00    -0.036 C 
ATOM      2  H12 <0> d           0.203   0.174   5.073  0.00  0.00     0.037 H 
ATOM      3  H13 <0> d           1.203   1.635   4.892  0.00  0.00     0.037 H 
ENDROOT
BRANCH   1   4
ATOM      4  C5  <0> d          -0.630   1.667   3.762  0.00  0.00    -0.059 C 
ATOM      5  H10 <0> d          -0.648   2.754   3.681  0.00  0.00     0.033 H 
ATOM      6  H11 <0> d          -1.649   1.293   3.861  0.00  0.00     0.033 H 
BRANCH   4   7
ATOM      7  C3  <0> d           0.011   1.072   2.506  0.00  0.00    -0.058 C 
ATOM      8  H1  <0> d           1.057   1.375   2.454  0.00  0.00     0.039 H 
BRANCH   7   9
ATOM      9  C2  <0> d          -0.729   1.579   1.267  0.00  0.00    -0.065 C 
ATOM     10  H5  <0> d          -0.744   2.669   1.273  0.00  0.00     0.033 H 
ATOM     11  H6  <0> d          -1.751   1.202   1.275  0.00  0.00     0.033 H 
BRANCH   9  12
ATOM     12  C1  <0> d          -0.013   1.086   0.008  0.00  0.00    -0.076 C 
ATOM     13  H2  <0> d           0.002  -0.004   0.002  0.00  0.00     0.027 H 
ATOM     14  H3  <0> d           1.010   1.463   0.000  0.00  0.00     0.027 H 
ATOM     15  H4  <0> d          -0.540   1.447  -0.875  0.00  0.00     0.027 H 
ENDBRANCH   9  12
ENDBRANCH   7   9
BRANCH   7  16
ATOM     16  C4  <0> d          -0.075  -0.454   2.563  0.00  0.00    -0.073 C 
ATOM     17  H7  <0> d           0.381  -0.878   1.669  0.00  0.00     0.028 H 
ATOM     18  H8  <0> d           0.452  -0.815   3.446  0.00  0.00     0.028 H 
ATOM     19  H9  <0> d          -1.121  -0.757   2.615  0.00  0.00     0.028 H 
ENDBRANCH   7  16
ENDBRANCH   4   7
ENDBRANCH   1   4
BRANCH   1  20
ATOM     20  C7  <0> d          -0.457   1.855   6.247  0.00  0.00     0.054 C 
BRANCH  20  21
ATOM     21  C8  <0> d          -1.887   1.330   6.387  0.00  0.00    -0.048 C 
ATOM     22  H14 <0> d          -1.869   0.244   6.468  0.00  0.00     0.031 H 
ATOM     23  H15 <0> d          -2.344   1.754   7.281  0.00  0.00     0.031 H 
ATOM     24  H16 <0> d          -2.467   1.620   5.511  0.00  0.00     0.031 H 
ENDBRANCH  20  21
BRANCH  20  25
ATOM     25  C9  <0> d           0.358   1.450   7.477  0.00  0.00    -0.040 C 
ATOM     26  H17 <0> d           0.451   0.364   7.509  0.00  0.00     0.036 H 
ATOM     27  H18 <0> d           1.350   1.898   7.420  0.00  0.00     0.036 H 
BRANCH  25  28
ATOM     28  C10 <0> d          -0.351   1.938   8.742  0.00  0.00    -0.074 C 
ATOM     29  H19 <0> d           0.230   1.649   9.618  0.00  0.00     0.027 H 
ATOM     30  H20 <0> d          -0.444   3.024   8.710  0.00  0.00     0.027 H 
ATOM     31  H21 <0> d          -1.343   1.490   8.799  0.00  0.00     0.027 H 
ENDBRANCH  25  28
ENDBRANCH  20  25
BRANCH  20  32
ATOM     32  O1  <0> d          -0.481   3.280   6.141  0.00  0.00    -0.390 OA
ATOM     33  H22 <0> d           0.394   3.683   6.049  0.00  0.00     0.210 HD
ENDBRANCH  20  32
ENDBRANCH   1  20
TORSDOF 10
