REMARK  3 active torsions:
REMARK  status: ('A' for Active; 'I' for Inactive)
REMARK    1  A    between atoms: C1_1  and  C2_2 
REMARK    2  A    between atoms: C2_2  and  C3_4 
REMARK    3  A    between atoms: C2_2  and  O1_9 
ROOT
ATOM      1  C2  <0> d           2.276   4.028   0.003  0.00  0.00     0.080 C 
ATOM      2  H1  <0> d           3.188   3.512  -0.333  0.00  0.00     0.093 H 
ENDROOT
BRANCH   1   3
ATOM      3  C1  <0> d           2.449   4.632   1.398  0.00  0.00    -0.047 C 
ATOM      4  H2  <0> d           3.303   5.325   1.394  0.00  0.00     0.031 H 
ATOM      5  H3  <0> d           2.633   3.827   2.125  0.00  0.00     0.031 H 
ATOM      6  H4  <0> d           1.536   5.177   1.677  0.00  0.00     0.031 H 
ENDBRANCH   1   3
BRANCH   1   7
ATOM      7  C3  <0> d           1.106   3.079   0.008  0.00  0.00     0.102 A 
ATOM      8  S1  <0> d          -0.593   3.440   0.026  0.00  0.00    -0.083 SA
ATOM      9  C5  <0> d          -1.188   1.755   0.017  0.00  0.00    -0.026 A 
ATOM     10  C4  <0> d          -0.013   1.076   0.008  0.00  0.00     0.009 A 
ATOM     11  H6  <0> d          -2.201   1.381   0.020  0.00  0.00     0.097 H 
ATOM     12  N1  <0> d           1.109   1.766   0.001  0.00  0.00    -0.255 NA
ATOM     13  H5  <0> d           0.002  -0.004   0.002  0.00  0.00     0.115 H 
ENDBRANCH   1   7
BRANCH   1  14
ATOM     14  O1  <0> d           2.037   5.073  -0.942  0.00  0.00    -0.389 OA
ATOM     15  H7  <0> d           1.887   4.830  -2.005  0.00  0.00     0.210 HD
ENDBRANCH   1  14
TORSDOF 3
