REMARK  0 active torsions:
REMARK  status: ('A' for Active; 'I' for Inactive)
ROOT
ATOM      1  C1  <0> d          -0.019   1.530   0.011  0.00  0.00    -0.061 C 
ATOM      2  C2  <0> d           1.421   2.053  -0.001  0.00  0.00    -0.061 C 
ATOM      3  C3  <0> d           2.086   1.747   1.346  0.00  0.00    -0.041 C 
ATOM      4  C4  <0> d           1.872   0.284   1.667  0.00  0.00    -0.056 A 
ATOM      5  C5  <0> d           0.954  -0.474   1.070  0.00  0.00    -0.070 A 
ATOM      6  C6  <0> d           0.002  -0.004   0.002  0.00  0.00    -0.044 C 
ATOM      7  C7  <0> d           1.059  -1.855   1.663  0.00  0.00    -0.029 A 
ATOM      8  C8  <0> d           2.174  -1.757   2.683  0.00  0.00    -0.099 A 
ATOM      9  C9  <0> d           2.615  -0.505   2.653  0.00  0.00    -0.080 A 
ATOM     10  H1  <0> d          -0.527   1.882   0.908  0.00  0.00     0.033 H 
ATOM     11  H2  <0> d          -0.544   1.891  -0.873  0.00  0.00     0.033 H 
ATOM     12  H3  <0> d           1.978   1.566  -0.800  0.00  0.00     0.033 H 
ATOM     13  H4  <0> d           1.414   3.130  -0.166  0.00  0.00     0.033 H 
ATOM     14  H5  <0> d           3.154   1.955   1.282  0.00  0.00     0.040 H 
ATOM     15  H6  <0> d           1.636   2.363   2.124  0.00  0.00     0.040 H 
ATOM     16  H7  <0> d          -0.998  -0.385   0.209  0.00  0.00     0.039 H 
ATOM     17  H8  <0> d           0.339  -0.360  -0.971  0.00  0.00     0.039 H 
ATOM     18  H9  <0> d           0.124  -2.131   2.149  0.00  0.00     0.045 H 
ATOM     19  H10 <0> d           1.315  -2.580   0.890  0.00  0.00     0.045 H 
ATOM     20  H11 <0> d           2.540  -2.553   3.314  0.00  0.00     0.077 H 
ATOM     21  H12 <0> d           3.412  -0.120   3.271  0.00  0.00     0.083 H 
ENDROOT
TORSDOF 0
