REMARK  3 active torsions:
REMARK  status: ('A' for Active; 'I' for Inactive)
REMARK    1  A    between atoms: C1_1  and  C2_2 
REMARK    2  A    between atoms: C2_2  and  N1_3 
REMARK    3  A    between atoms: C5_7  and  C6_9 
ROOT
ATOM      1  N1  <0> d           1.045   2.045   0.003  0.00  0.00    -0.238 N 
ATOM      2  C3  <0> d          -0.014   1.209   0.009  0.00  0.00     0.245 A 
ATOM      3  O1  <0> d           0.002  -0.004   0.002  0.00  0.00    -0.271 OA
ATOM      4  C4  <0> d          -1.230   2.116   0.018  0.00  0.00     0.049 A 
ATOM      5  C5  <0> d          -0.634   3.508   0.027  0.00  0.00     0.037 A 
ATOM      6  N2  <0> d           0.635   3.374   0.014  0.00  0.00    -0.179 NA
ATOM      7  H6  <0> d          -1.836   1.926  -0.879  0.00  0.00     0.056 H 
ATOM      8  H7  <0> d          -1.832   1.913   0.917  0.00  0.00     0.056 H 
ENDROOT
BRANCH   1   9
ATOM      9  C2  <0> d           2.444   1.610  -0.012  0.00  0.00     0.017 C 
ATOM     10  H4  <0> d           2.532   0.641   0.501  0.00  0.00     0.067 H 
ATOM     11  H5  <0> d           3.066   2.356   0.504  0.00  0.00     0.067 H 
BRANCH   9  12
ATOM     12  C1  <0> d           2.917   1.466  -1.460  0.00  0.00    -0.059 C 
ATOM     13  H1  <0> d           3.968   1.139  -1.471  0.00  0.00     0.029 H 
ATOM     14  H2  <0> d           2.829   2.435  -1.973  0.00  0.00     0.029 H 
ATOM     15  H3  <0> d           2.296   0.719  -1.976  0.00  0.00     0.029 H 
ENDBRANCH   9  12
ENDBRANCH   1   9
BRANCH   5  16
ATOM     16  C6  <0> d          -1.397   4.808   0.041  0.00  0.00    -0.037 C 
ATOM     17  H8  <0> d          -0.688   5.649   0.044  0.00  0.00     0.035 H 
ATOM     18  H9  <0> d          -2.026   4.854   0.942  0.00  0.00     0.035 H 
ATOM     19  H10 <0> d          -2.033   4.868  -0.855  0.00  0.00     0.035 H 
ENDBRANCH   5  16
TORSDOF 3
