REMARK  0 active torsions:
REMARK  status: ('A' for Active; 'I' for Inactive)
ROOT
ATOM      1  C1  <0> d          -1.338   1.910   0.019  0.00  0.00     0.021 C 
ATOM      2  C2  <0> d          -1.232   3.348   0.433  0.00  0.00     0.038 C 
ATOM      3  H1  <0> d          -2.175   3.715   0.002  0.00  0.00     0.056 H 
ATOM      4  C3  <0> d           0.012   4.076  -0.103  0.00  0.00    -0.011 C 
ATOM      5  H2  <0> d          -0.008   4.253  -1.189  0.00  0.00     0.046 H 
ATOM      6  C4  <0> d           1.282   3.288   0.221  0.00  0.00     0.001 C 
ATOM      7  N1  <0> d           1.145   1.864   0.001  0.00  0.00    -0.361 N 
ATOM      8  C5  <0> d          -0.014   1.209   0.009  0.00  0.00     0.218 C 
ATOM      9  O1  <0> d           0.002  -0.004   0.002  0.00  0.00    -0.274 OA
ATOM     10  C6  <0> d           0.018   5.292   0.878  0.00  0.00     0.001 C 
ATOM     11  N2  <0> d          -0.525   4.750   2.134  0.00  0.00    -0.360 N 
ATOM     12  C7  <0> d          -1.222   3.612   1.910  0.00  0.00     0.222 C 
ATOM     13  O2  <0> d          -1.748   2.923   2.758  0.00  0.00    -0.273 OA
ATOM     14  H3  <0> d          -1.775   1.883  -0.990  0.00  0.00     0.048 H 
ATOM     15  H4  <0> d          -2.014   1.407   0.725  0.00  0.00     0.048 H 
ATOM     16  H5  <0> d           2.106   3.644  -0.416  0.00  0.00     0.064 H 
ATOM     17  H6  <0> d           1.546   3.437   1.278  0.00  0.00     0.064 H 
ATOM     18  H7  <0> d           2.037   1.248  -0.188  0.00  0.00     0.162 HD
ATOM     19  H8  <0> d           1.048   5.660   0.999  0.00  0.00     0.064 H 
ATOM     20  H9  <0> d          -0.613   6.096   0.470  0.00  0.00     0.064 H 
ATOM     21  H10 <0> d          -0.337   5.272   3.085  0.00  0.00     0.162 HD
ENDROOT
TORSDOF 0
