REMARK  3 active torsions:
REMARK  status: ('A' for Active; 'I' for Inactive)
REMARK    1  A    between atoms: C1_1  and  C2_2 
REMARK    2  A    between atoms: C5_5  and  N2_10 
REMARK    3  A    between atoms: N2_10  and  C9_11 
ROOT
ATOM      1  C2  <0> d          -2.909   1.938   0.040  0.00  0.00    -0.057 C 
ATOM      2  C3  <0> d          -2.193   1.445  -1.219  0.00  0.00    -0.059 C 
ATOM      3  C4  <0> d          -0.758   1.975  -1.229  0.00  0.00    -0.018 C 
ATOM      4  C5  <0> d          -0.018   1.468   0.010  0.00  0.00     0.243 C 
ATOM      5  C6  <0> d          -0.734   1.961   1.269  0.00  0.00    -0.018 C 
ATOM      6  C7  <0> d          -2.169   1.432   1.280  0.00  0.00    -0.059 C 
ATOM      7  C8  <0> d           0.002  -0.004   0.002  0.00  0.00     0.101 C 
ATOM      8  N1  <0> d           0.018  -1.140  -0.004  0.00  0.00    -0.195 NA
ATOM      9  H4  <0> d          -2.924   3.038   0.046  0.00  0.00     0.039 H 
ATOM     10  H5  <0> d          -2.178   0.345  -1.225  0.00  0.00     0.033 H 
ATOM     11  H6  <0> d          -2.725   1.809  -2.110  0.00  0.00     0.033 H 
ATOM     12  H7  <0> d          -0.243   1.620  -2.134  0.00  0.00     0.038 H 
ATOM     13  H8  <0> d          -0.773   3.075  -1.223  0.00  0.00     0.038 H 
ATOM     14  H9  <0> d          -0.202   1.597   2.160  0.00  0.00     0.038 H 
ATOM     15  H10 <0> d          -0.749   3.061   1.275  0.00  0.00     0.038 H 
ATOM     16  H11 <0> d          -2.684   1.786   2.185  0.00  0.00     0.033 H 
ATOM     17  H12 <0> d          -2.155   0.332   1.274  0.00  0.00     0.033 H 
ENDROOT
BRANCH   4  18
ATOM     18  N2  <0> d           1.360   1.976  -0.000  0.00  0.00     0.102 N 
ATOM     19  H13 <0> d           1.875   1.621  -0.905  0.00  0.00     0.317 HD
BRANCH  18  20
ATOM     20  C9  <0> d           2.103   1.509   1.178  0.00  0.00     0.095 C 
ATOM     21  H14 <0> d           3.129   1.903   1.145  0.00  0.00     0.071 H 
ATOM     22  H15 <0> d           2.132   0.409   1.180  0.00  0.00     0.071 H 
ATOM     23  H16 <0> d           1.603   1.864   2.091  0.00  0.00     0.071 H 
ENDBRANCH  18  20
ENDBRANCH   4  18
BRANCH   1  24
ATOM     24  C1  <0> d          -4.345   1.409   0.051  0.00  0.00    -0.073 C 
ATOM     25  H1  <0> d          -4.877   1.773  -0.840  0.00  0.00     0.028 H 
ATOM     26  H2  <0> d          -4.860   1.764   0.956  0.00  0.00     0.028 H 
ATOM     27  H3  <0> d          -4.330   0.309   0.045  0.00  0.00     0.028 H 
ENDBRANCH   1  24
TORSDOF 3
