REMARK  4 active torsions:
REMARK  status: ('A' for Active; 'I' for Inactive)
REMARK    1  A    between atoms: C1_1  and  O1_2 
REMARK    2  A    between atoms: O1_2  and  C2_3 
REMARK    3  A    between atoms: C4_5  and  N2_10 
REMARK    4  A    between atoms: C7_8  and  N1_9 
ROOT
ATOM      1  C2  <0> d           0.606  -0.608  -1.056  0.00  0.00     0.096 A 
ATOM      2  C3  <0> d           1.172   0.159  -2.061  0.00  0.00    -0.023 A 
ATOM      3  C4  <0> d           1.789  -0.459  -3.141  0.00  0.00     0.028 A 
ATOM      4  C5  <0> d           1.837  -1.845  -3.213  0.00  0.00    -0.055 A 
ATOM      5  C6  <0> d           1.272  -2.611  -2.212  0.00  0.00    -0.053 A 
ATOM      6  C7  <0> d           0.661  -1.997  -1.129  0.00  0.00     0.059 A 
ATOM      7  H4  <0> d           1.134   1.237  -2.005  0.00  0.00     0.091 H 
ATOM      8  H5  <0> d           2.317  -2.324  -4.054  0.00  0.00     0.087 H 
ATOM      9  H6  <0> d           1.311  -3.689  -2.270  0.00  0.00     0.087 H 
ENDROOT
BRANCH   1  10
ATOM     10  O1  <0> d           0.002  -0.004   0.002  0.00  0.00    -0.354 OA
BRANCH  10  11
ATOM     11  C1  <0> d          -0.017   1.425   0.010  0.00  0.00     0.010 C 
ATOM     12  H1  <0> d           1.005   1.802   0.002  0.00  0.00     0.066 H 
ATOM     13  H2  <0> d          -0.544   1.786  -0.873  0.00  0.00     0.066 H 
ATOM     14  H3  <0> d          -0.527   1.776   0.907  0.00  0.00     0.066 H 
ENDBRANCH  10  11
ENDBRANCH   1  10
BRANCH   6  15
ATOM     15  N1  <0> d           0.094  -2.776  -0.109  0.00  0.00    -0.397 N 
ATOM     16  H7  <0> d          -0.337  -2.346   0.647  0.00  0.00     0.156 HD
ATOM     17  H8  <0> d           0.133  -3.744  -0.159  0.00  0.00     0.156 HD
ENDBRANCH   6  15
BRANCH   3  18
ATOM     18  N2  <0> d           2.361   0.315  -4.157  0.00  0.00    -0.399 N 
ATOM     19  H9  <0> d           2.326   1.283  -4.107  0.00  0.00     0.156 HD
ATOM     20  H10 <0> d           2.791  -0.116  -4.912  0.00  0.00     0.156 HD
ENDBRANCH   3  18
TORSDOF 4
