REMARK  2 active torsions:
REMARK  status: ('A' for Active; 'I' for Inactive)
REMARK    1  A    between atoms: C1_1  and  C2_2 
REMARK    2  A    between atoms: C3_6  and  C4_8 
ROOT
ATOM      1  C2  <0> d           1.054   1.786   0.002  0.00  0.00     0.118 A 
ATOM      2  N1  <0> d          -0.011   0.966   0.007  0.00  0.00    -0.263 N 
ATOM      3  H1  <0> d           0.134  -0.124   0.004  0.00  0.00     0.190 HD
ATOM      4  N2  <0> d          -1.147   1.792   0.017  0.00  0.00    -0.158 NA
ATOM      5  C3  <0> d          -0.716   3.026   0.024  0.00  0.00     0.144 A 
ATOM      6  N3  <0> d           0.617   3.019   0.012  0.00  0.00    -0.218 NA
ENDROOT
BRANCH   1   7
ATOM      7  C1  <0> d           2.499   1.360  -0.015  0.00  0.00    -0.020 C 
ATOM      8  H2  <0> d           2.558   0.261  -0.020  0.00  0.00     0.037 H 
ATOM      9  H3  <0> d           3.006   1.749   0.881  0.00  0.00     0.037 H 
ATOM     10  H4  <0> d           2.989   1.758  -0.916  0.00  0.00     0.037 H 
ENDBRANCH   1   7
BRANCH   5  11
ATOM     11  C4  <0> d          -1.585   4.257   0.038  0.00  0.00    -0.018 C 
ATOM     12  H5  <0> d          -0.949   5.155   0.041  0.00  0.00     0.038 H 
ATOM     13  H6  <0> d          -2.215   4.251   0.939  0.00  0.00     0.038 H 
ATOM     14  H7  <0> d          -2.224   4.265  -0.857  0.00  0.00     0.038 H 
ENDBRANCH   5  11
TORSDOF 2
