REMARK  4 active torsions:
REMARK  status: ('A' for Active; 'I' for Inactive)
REMARK    1  A    between atoms: C1_1  and  C2_2 
REMARK    2  A    between atoms: C2_2  and  C3_3 
REMARK    3  A    between atoms: C3_3  and  C4_4 
REMARK    4  A    between atoms: C5_5  and  C7_10 
ROOT
ATOM      1  C4  <0> d           0.739  -2.004  -1.265  0.00  0.00     0.046 A 
ATOM      2  C5  <0> d          -0.262  -2.834  -1.736  0.00  0.00     0.084 A 
ATOM      3  C6  <0> d           0.178  -4.165  -1.549  0.00  0.00     0.040 A 
ATOM      4  N1  <0> d           1.362  -4.124  -1.003  0.00  0.00    -0.186 NA
ATOM      5  N2  <0> d           1.734  -2.787  -0.822  0.00  0.00    -0.281 N 
ATOM      6  H1  <0> d           2.570  -2.479  -0.439  0.00  0.00     0.189 HD
ATOM      7  H9  <0> d          -0.369  -5.058  -1.811  0.00  0.00     0.119 H 
ENDROOT
BRANCH   1   8
ATOM      8  C3  <0> d           0.718  -0.497  -1.257  0.00  0.00    -0.025 C 
ATOM      9  H7  <0> d           0.191  -0.136  -2.140  0.00  0.00     0.042 H 
ATOM     10  H8  <0> d           1.741  -0.120  -1.264  0.00  0.00     0.042 H 
BRANCH   8  11
ATOM     11  C2  <0> d           0.002  -0.004   0.002  0.00  0.00    -0.063 C 
ATOM     12  H5  <0> d           0.529  -0.365   0.885  0.00  0.00     0.033 H 
ATOM     13  H6  <0> d          -1.020  -0.381   0.010  0.00  0.00     0.033 H 
BRANCH  11  14
ATOM     14  C1  <0> d          -0.019   1.526   0.010  0.00  0.00    -0.076 C 
ATOM     15  H2  <0> d           1.004   1.903   0.003  0.00  0.00     0.027 H 
ATOM     16  H3  <0> d          -0.546   1.887  -0.873  0.00  0.00     0.027 H 
ATOM     17  H4  <0> d          -0.529   1.877   0.907  0.00  0.00     0.027 H 
ENDBRANCH  11  14
ENDBRANCH   8  11
ENDBRANCH   1   8
BRANCH   2  18
ATOM     18  C7  <0> d          -1.544  -2.412  -2.321  0.00  0.00     0.212 C 
ATOM     19  O1  <0> d          -2.348  -3.252  -2.701  0.00  0.00    -0.644 OA
ATOM     20  O2  <0> d          -1.806  -1.222  -2.426  0.00  0.00    -0.644 OA
ENDBRANCH   2  18
TORSDOF 4
