REMARK  3 active torsions:
REMARK  status: ('A' for Active; 'I' for Inactive)
REMARK    1  A    between atoms: C1_1  and  C2_2 
REMARK    2  A    between atoms: C4_4  and  C8_9 
REMARK    3  A    between atoms: C8_9  and  O1_10 
ROOT
ATOM      1  C2  <0> d          -2.367   1.253   2.955  0.00  0.00    -0.040 A 
ATOM      2  C3  <0> d          -1.719   0.808   1.817  0.00  0.00    -0.068 A 
ATOM      3  C4  <0> d          -0.718   1.572   1.248  0.00  0.00    -0.034 A 
ATOM      4  C5  <0> d          -0.360   2.779   1.819  0.00  0.00    -0.073 A 
ATOM      5  C6  <0> d          -1.010   3.228   2.952  0.00  0.00    -0.061 A 
ATOM      6  C7  <0> d          -2.012   2.464   3.523  0.00  0.00     0.040 A 
ATOM      7 Cl1  <0> d          -2.825   3.024   4.951  0.00  0.00    -0.084 Cl
ATOM      8  H4  <0> d          -1.996  -0.137   1.374  0.00  0.00     0.085 H 
ATOM      9  H5  <0> d           0.426   3.374   1.376  0.00  0.00     0.084 H 
ATOM     10  H6  <0> d          -0.733   4.173   3.396  0.00  0.00     0.086 H 
ENDROOT
BRANCH   3  11
ATOM     11  C8  <0> d          -0.013   1.086   0.008  0.00  0.00     0.040 C 
ATOM     12  H7  <0> d           0.002  -0.004   0.002  0.00  0.00     0.081 H 
ATOM     13  H8  <0> d           1.010   1.463   0.000  0.00  0.00     0.081 H 
BRANCH  11  14
ATOM     14  O1  <0> d          -0.704   1.559  -1.150  0.00  0.00    -0.396 OA
ATOM     15  H9  <0> d          -0.304   1.284  -1.986  0.00  0.00     0.209 HD
ENDBRANCH  11  14
ENDBRANCH   3  11
BRANCH   1  16
ATOM     16  C1  <0> d          -3.459   0.420   3.575  0.00  0.00    -0.050 C 
ATOM     17  H1  <0> d          -3.025  -0.259   4.309  0.00  0.00     0.033 H 
ATOM     18  H2  <0> d          -4.179   1.074   4.067  0.00  0.00     0.033 H 
ATOM     19  H3  <0> d          -3.961  -0.156   2.799  0.00  0.00     0.033 H 
ENDBRANCH   1  16
TORSDOF 3
