REMARK  2 active torsions:
REMARK  status: ('A' for Active; 'I' for Inactive)
REMARK    1  A    between atoms: C2_2  and  O4_14 
REMARK    2  A    between atoms: C5_9  and  O3_13 
ROOT
ATOM      1  C1  <0> d          -0.017   1.426   0.010  0.00  0.00     0.046 C 
ATOM      2  C2  <0> d           1.451   1.892  -0.002  0.00  0.00     0.083 C 
ATOM      3  H1  <0> d           1.823   2.018   1.015  0.00  0.00     0.090 H 
ATOM      4  C3  <0> d           2.184   0.730  -0.711  0.00  0.00     0.092 C 
ATOM      5  H2  <0> d           3.201   0.581  -0.348  0.00  0.00     0.091 H 
ATOM      6  C4  <0> d           1.262  -0.487  -0.453  0.00  0.00     0.092 C 
ATOM      7  H3  <0> d           1.712  -1.169   0.269  0.00  0.00     0.091 H 
ATOM      8  O1  <0> d           0.002  -0.004   0.002  0.00  0.00    -0.378 OA
ATOM      9  C5  <0> d           1.118  -1.164  -1.829  0.00  0.00     0.083 C 
ATOM     10  H4  <0> d           1.454  -2.200  -1.782  0.00  0.00     0.090 H 
ATOM     11  C6  <0> d           2.042  -0.338  -2.751  0.00  0.00     0.046 C 
ATOM     12  O2  <0> d           2.124   0.973  -2.134  0.00  0.00    -0.378 OA
ATOM     13  H5  <0> d          -0.516   1.787   0.910  0.00  0.00     0.078 H 
ATOM     14  H6  <0> d          -0.533   1.797  -0.876  0.00  0.00     0.078 H 
ATOM     15  H7  <0> d           3.034  -0.787  -2.796  0.00  0.00     0.078 H 
ATOM     16  H8  <0> d           1.612  -0.263  -3.750  0.00  0.00     0.078 H 
ENDROOT
BRANCH   2  17
ATOM     17  O4  <0> d           1.590   3.107  -0.742  0.00  0.00    -0.391 OA
ATOM     18  H10 <0> d           1.089   3.849  -0.376  0.00  0.00     0.210 HD
ENDBRANCH   2  17
BRANCH   9  19
ATOM     19  O3  <0> d          -0.235  -1.098  -2.281  0.00  0.00    -0.391 OA
ATOM     20  H9  <0> d          -0.383  -1.509  -3.144  0.00  0.00     0.210 HD
ENDBRANCH   9  19
TORSDOF 2
