REMARK  2 active torsions:
REMARK  status: ('A' for Active; 'I' for Inactive)
REMARK    1  A    between atoms: C1_1  and  O1_2 
REMARK    2  A    between atoms: O1_2  and  C2_3 
ROOT
ATOM      1  C2  <0> d          -1.224   1.753   0.017  0.00  0.00     0.071 A 
ATOM      2  C3  <0> d          -0.013   1.076   0.008  0.00  0.00    -0.051 A 
ATOM      3  C4  <0> d           1.174   1.783   0.000  0.00  0.00    -0.077 A 
ATOM      4  C5  <0> d           1.157   3.165   0.007  0.00  0.00    -0.045 A 
ATOM      5  C6  <0> d          -0.049   3.845   0.022  0.00  0.00     0.119 A 
ATOM      6  C7  <0> d          -1.240   3.140   0.030  0.00  0.00    -0.014 A 
ATOM      7  F1  <0> d          -0.064   5.196   0.028  0.00  0.00    -0.206 F 
ATOM      8  H4  <0> d           0.002  -0.004   0.002  0.00  0.00     0.087 H 
ATOM      9  H5  <0> d           2.116   1.255  -0.011  0.00  0.00     0.083 H 
ATOM     10  H6  <0> d           2.086   3.716   0.000  0.00  0.00     0.088 H 
ATOM     11  H7  <0> d          -2.182   3.669   0.043  0.00  0.00     0.092 H 
ENDROOT
BRANCH   1  12
ATOM     12  O1  <0> d          -2.392   1.059   0.019  0.00  0.00    -0.356 OA
BRANCH  12  13
ATOM     13  C1  <0> d          -3.600   1.822   0.029  0.00  0.00     0.010 C 
ATOM     14  H1  <0> d          -3.637   2.455  -0.857  0.00  0.00     0.066 H 
ATOM     15  H2  <0> d          -4.456   1.147   0.029  0.00  0.00     0.066 H 
ATOM     16  H3  <0> d          -3.629   2.445   0.922  0.00  0.00     0.066 H 
ENDBRANCH  12  13
ENDBRANCH   1  12
TORSDOF 2
