REMARK  8 active torsions:
REMARK  status: ('A' for Active; 'I' for Inactive)
REMARK    1  A    between atoms: C1_1  and  C2_2 
REMARK    2  A    between atoms: C2_2  and  C3_3 
REMARK    3  A    between atoms: C2_2  and  C4_4 
REMARK    4  A    between atoms: C2_2  and  O2_10 
REMARK    5  A    between atoms: C5_5  and  C6_6 
REMARK    6  A    between atoms: C6_6  and  C7_7 
REMARK    7  A    between atoms: C6_6  and  C8_8 
REMARK    8  A    between atoms: C6_6  and  O1_9 
ROOT
ATOM      1  C4  <0> d           1.185   0.372  -2.100  0.00  0.00    -0.072 C 
ATOM      2  C5  <0> d           0.707  -0.490  -1.238  0.00  0.00    -0.072 C 
ATOM      3  H7  <0> d           1.074   1.432  -1.923  0.00  0.00     0.081 H 
ATOM      4  H8  <0> d           0.819  -1.550  -1.415  0.00  0.00     0.081 H 
ENDROOT
BRANCH   1   5
ATOM      5  C2  <0> d           1.891  -0.114  -3.340  0.00  0.00     0.068 C 
BRANCH   5   6
ATOM      6  C1  <0> d           1.151   0.393  -4.580  0.00  0.00    -0.045 C 
ATOM      7  H1  <0> d           1.136   1.483  -4.574  0.00  0.00     0.032 H 
ATOM      8  H2  <0> d           1.661   0.042  -5.476  0.00  0.00     0.032 H 
ATOM      9  H3  <0> d           0.128   0.016  -4.572  0.00  0.00     0.032 H 
ENDBRANCH   5   6
BRANCH   5  10
ATOM     10  C3  <0> d           3.326   0.416  -3.351  0.00  0.00    -0.045 C 
ATOM     11  H4  <0> d           3.853   0.055  -2.468  0.00  0.00     0.032 H 
ATOM     12  H5  <0> d           3.836   0.065  -4.248  0.00  0.00     0.032 H 
ATOM     13  H6  <0> d           3.311   1.506  -3.345  0.00  0.00     0.032 H 
ENDBRANCH   5  10
BRANCH   5  14
ATOM     14  O2  <0> d           1.910  -1.542  -3.348  0.00  0.00    -0.387 OA
ATOM     15  H16 <0> d           1.032  -1.948  -3.342  0.00  0.00     0.211 HD
ENDBRANCH   5  14
ENDBRANCH   1   5
BRANCH   2  16
ATOM     16  C6  <0> d           0.002  -0.004   0.002  0.00  0.00     0.068 C 
BRANCH  16  17
ATOM     17  C7  <0> d           0.742  -0.511   1.242  0.00  0.00    -0.045 C 
ATOM     18  H9  <0> d           0.232  -0.159   2.138  0.00  0.00     0.032 H 
ATOM     19  H10 <0> d           0.757  -1.601   1.236  0.00  0.00     0.032 H 
ATOM     20  H11 <0> d           1.765  -0.134   1.234  0.00  0.00     0.032 H 
ENDBRANCH  16  17
BRANCH  16  21
ATOM     21  C8  <0> d          -1.433  -0.534   0.013  0.00  0.00    -0.045 C 
ATOM     22  H12 <0> d          -1.960  -0.173  -0.870  0.00  0.00     0.032 H 
ATOM     23  H13 <0> d          -1.419  -1.623   0.007  0.00  0.00     0.032 H 
ATOM     24  H14 <0> d          -1.944  -0.182   0.910  0.00  0.00     0.032 H 
ENDBRANCH  16  21
BRANCH  16  25
ATOM     25  O1  <0> d          -0.017   1.425   0.010  0.00  0.00    -0.387 OA
ATOM     26  H15 <0> d           0.861   1.830   0.004  0.00  0.00     0.211 HD
ENDBRANCH  16  25
ENDBRANCH   2  16
TORSDOF 8
