REMARK  2 active torsions:
REMARK  status: ('A' for Active; 'I' for Inactive)
REMARK    1  A    between atoms: C4_5  and  S1_7 
REMARK    2  A    between atoms: S1_7  and  C6_8 
ROOT
ATOM      1  C6  <0> d           1.856   5.947   0.016  0.00  0.00     0.061 C 
ATOM      2  C7  <0> d           2.038   7.408   0.022  0.00  0.00     0.069 C 
ATOM      3  N2  <0> d           2.179   8.535   0.027  0.00  0.00    -0.197 NA
ATOM      4  H5  <0> d           2.329   5.518   0.899  0.00  0.00     0.071 H 
ATOM      5  H6  <0> d           2.312   5.528  -0.881  0.00  0.00     0.071 H 
ENDROOT
BRANCH   1   6
ATOM      6  S1  <0> d           0.084   5.559   0.031  0.00  0.00    -0.096 SA
BRANCH   6   7
ATOM      7  C4  <0> d           0.033   3.798   0.022  0.00  0.00     0.093 A 
ATOM      8  N1  <0> d           1.163   3.109   0.007  0.00  0.00    -0.254 NA
ATOM      9  C3  <0> d           1.169   1.789   0.001  0.00  0.00     0.003 A 
ATOM     10  C2  <0> d          -0.013   1.076   0.008  0.00  0.00    -0.066 A 
ATOM     11  H3  <0> d           2.111   1.260  -0.011  0.00  0.00     0.114 H 
ATOM     12  C1  <0> d          -1.221   1.761   0.017  0.00  0.00    -0.079 A 
ATOM     13  H2  <0> d           0.002  -0.004   0.002  0.00  0.00     0.085 H 
ATOM     14  C5  <0> d          -1.196   3.143   0.030  0.00  0.00    -0.049 A 
ATOM     15  H1  <0> d          -2.159   1.226   0.019  0.00  0.00     0.083 H 
ATOM     16  H4  <0> d          -2.117   3.708   0.042  0.00  0.00     0.087 H 
ENDBRANCH   6   7
ENDBRANCH   1   6
TORSDOF 2
