REMARK  1 active torsions:
REMARK  status: ('A' for Active; 'I' for Inactive)
REMARK    1  A    between atoms: C1_1  and  C2_2 
ROOT
ATOM      1  C2  <0> d          -1.241   3.789   0.034  0.00  0.00    -0.019 A 
ATOM      2  C3  <0> d          -0.024   4.454   0.026  0.00  0.00    -0.057 A 
ATOM      3  C4  <0> d           1.146   3.719   0.011  0.00  0.00     0.004 A 
ATOM      4  N1  <0> d           1.116   2.400   0.004  0.00  0.00    -0.246 NA
ATOM      5  C5  <0> d          -0.021   1.732   0.012  0.00  0.00     0.164 A 
ATOM      6  C6  <0> d          -1.235   2.401   0.021  0.00  0.00     0.162 A 
ATOM      7  F1  <0> d          -2.397   1.712   0.023  0.00  0.00    -0.202 F 
ATOM      8 Cl1  <0> d           0.002  -0.004   0.002  0.00  0.00    -0.059 Cl
ATOM      9  H4  <0> d           0.009   5.533   0.032  0.00  0.00     0.086 H 
ATOM     10  H5  <0> d           2.097   4.230   0.005  0.00  0.00     0.114 H 
ENDROOT
BRANCH   1  11
ATOM     11  C1  <0> d          -2.538   4.555   0.050  0.00  0.00    -0.048 C 
ATOM     12  H1  <0> d          -2.861   4.745  -0.973  0.00  0.00     0.033 H 
ATOM     13  H2  <0> d          -3.299   3.971   0.568  0.00  0.00     0.033 H 
ATOM     14  H3  <0> d          -2.394   5.503   0.568  0.00  0.00     0.033 H 
ENDBRANCH   1  11
TORSDOF 1
