REMARK  2 active torsions:
REMARK  status: ('A' for Active; 'I' for Inactive)
REMARK    1  A    between atoms: C1_1  and  C2_2 
REMARK    2  A    between atoms: C3_3  and  C6_7 
ROOT
ATOM      1  C2  <0> d           0.002  -0.004   0.002  0.00  0.00    -0.043 A 
ATOM      2  C3  <0> d           0.009  -0.818  -1.071  0.00  0.00     0.134 A 
ATOM      3  N1  <0> d           0.029  -2.132  -0.708  0.00  0.00    -0.258 NA
ATOM      4  C4  <0> d           0.036  -2.311   0.567  0.00  0.00    -0.013 A 
ATOM      5  C5  <0> d           0.026  -0.934   1.201  0.00  0.00    -0.012 A 
ATOM      6  H4  <0> d           0.052  -3.259   1.084  0.00  0.00     0.108 H 
ATOM      7  H5  <0> d           0.926  -0.775   1.794  0.00  0.00     0.047 H 
ATOM      8  H6  <0> d          -0.867  -0.800   1.810  0.00  0.00     0.047 H 
ENDROOT
BRANCH   1   9
ATOM      9  C1  <0> d          -0.018   1.503   0.010  0.00  0.00    -0.052 C 
ATOM     10  H1  <0> d           1.004   1.880   0.003  0.00  0.00     0.033 H 
ATOM     11  H2  <0> d          -0.545   1.864  -0.873  0.00  0.00     0.033 H 
ATOM     12  H3  <0> d          -0.529   1.854   0.907  0.00  0.00     0.033 H 
ENDBRANCH   1   9
BRANCH   2  13
ATOM     13  C6  <0> d          -0.003  -0.346  -2.467  0.00  0.00     0.229 C 
ATOM     14  O1  <0> d          -0.021   0.854  -2.708  0.00  0.00    -0.643 OA
ATOM     15  O2  <0> d           0.004  -1.153  -3.386  0.00  0.00    -0.643 OA
ENDBRANCH   2  13
TORSDOF 2
