REMARK  5 active torsions:
REMARK  status: ('A' for Active; 'I' for Inactive)
REMARK    1  A    between atoms: C1_1  and  C2_2 
REMARK    2  A    between atoms: C2_2  and  C3_4 
REMARK    3  A    between atoms: C2_2  and  C6_7 
REMARK    4  A    between atoms: C3_4  and  C4_5 
REMARK    5  A    between atoms: C3_4  and  C5_6 
ROOT
ATOM      1  C3  <0> d           0.742  -0.511   1.242  0.00  0.00    -0.049 C 
ATOM      2  H5  <0> d           0.232  -0.159   2.138  0.00  0.00     0.040 H 
ENDROOT
BRANCH   1   3
ATOM      3  C2  <0> d           0.002  -0.004   0.002  0.00  0.00     0.030 C 
ATOM      4  H1  <0> d           0.512  -0.356  -0.895  0.00  0.00     0.056 H 
BRANCH   3   5
ATOM      5  C1  <0> d          -0.019   1.526   0.010  0.00  0.00    -0.063 C 
ATOM      6  H2  <0> d           1.004   1.903   0.003  0.00  0.00     0.028 H 
ATOM      7  H3  <0> d          -0.546   1.887  -0.873  0.00  0.00     0.028 H 
ATOM      8  H4  <0> d          -0.529   1.877   0.907  0.00  0.00     0.028 H 
ENDBRANCH   3   5
BRANCH   3   9
ATOM      9  C6  <0> d          -1.412  -0.526   0.013  0.00  0.00     0.176 C 
ATOM     10  O1  <0> d          -1.710  -1.492  -0.668  0.00  0.00    -0.648 OA
ATOM     11  O2  <0> d          -2.257   0.018   0.703  0.00  0.00    -0.648 OA
ENDBRANCH   3   9
ENDBRANCH   1   3
BRANCH   1  12
ATOM     12  C4  <0> d           0.763  -2.041   1.233  0.00  0.00    -0.072 C 
ATOM     13  H6  <0> d           1.273  -2.392   0.336  0.00  0.00     0.028 H 
ATOM     14  H7  <0> d           1.290  -2.402   2.116  0.00  0.00     0.028 H 
ATOM     15  H8  <0> d          -0.260  -2.418   1.241  0.00  0.00     0.028 H 
ENDBRANCH   1  12
BRANCH   1  16
ATOM     16  C5  <0> d           2.178   0.019   1.231  0.00  0.00    -0.072 C 
ATOM     17  H9  <0> d           2.163   1.109   1.237  0.00  0.00     0.028 H 
ATOM     18  H10 <0> d           2.705  -0.342   2.114  0.00  0.00     0.028 H 
ATOM     19  H11 <0> d           2.688  -0.333   0.334  0.00  0.00     0.028 H 
ENDBRANCH   1  16
TORSDOF 5
