REMARK  2 active torsions:
REMARK  status: ('A' for Active; 'I' for Inactive)
REMARK    1  A    between atoms: C1_1  and  C2_2 
REMARK    2  A    between atoms: N3_10  and  C8_11 
ROOT
ATOM      1  C2  <0> d          -2.079   0.612   0.026  0.00  0.00     0.104 A 
ATOM      2  N1  <0> d          -1.289  -0.421   0.013  0.00  0.00    -0.232 NA
ATOM      3  C3  <0> d           0.002  -0.004   0.002  0.00  0.00     0.104 A 
ATOM      4  C4  <0> d           1.234  -0.665  -0.013  0.00  0.00    -0.050 A 
ATOM      5  C5  <0> d           2.385   0.101  -0.020  0.00  0.00    -0.064 A 
ATOM      6  C6  <0> d           2.286   1.483  -0.012  0.00  0.00     0.005 A 
ATOM      7  N2  <0> d           1.116   2.087   0.003  0.00  0.00    -0.241 NA
ATOM      8  C7  <0> d          -0.017   1.402   0.010  0.00  0.00     0.159 A 
ATOM      9  N3  <0> d          -1.348   1.760   0.030  0.00  0.00    -0.323 N 
ATOM     10  H4  <0> d           1.286  -1.744  -0.020  0.00  0.00     0.087 H 
ATOM     11  H5  <0> d           3.354  -0.375  -0.032  0.00  0.00     0.085 H 
ATOM     12  H6  <0> d           3.188   2.078  -0.018  0.00  0.00     0.114 H 
ENDROOT
BRANCH   1  13
ATOM     13  C1  <0> d          -3.585   0.547   0.041  0.00  0.00    -0.021 C 
ATOM     14  H1  <0> d          -3.938   0.526   1.072  0.00  0.00     0.037 H 
ATOM     15  H2  <0> d          -3.991   1.424  -0.464  0.00  0.00     0.037 H 
ATOM     16  H3  <0> d          -3.915  -0.355  -0.475  0.00  0.00     0.037 H 
ENDBRANCH   1  13
BRANCH   9  17
ATOM     17  C8  <0> d          -1.878   3.125   0.045  0.00  0.00    -0.011 C 
ATOM     18  H7  <0> d          -2.024   3.470  -0.979  0.00  0.00     0.057 H 
ATOM     19  H8  <0> d          -2.832   3.139   0.572  0.00  0.00     0.057 H 
ATOM     20  H9  <0> d          -1.173   3.783   0.553  0.00  0.00     0.057 H 
ENDBRANCH   9  17
TORSDOF 2
