REMARK  2 active torsions:
REMARK  status: ('A' for Active; 'I' for Inactive)
REMARK    1  A    between atoms: C1_1  and  C2_2 
REMARK    2  A    between atoms: C3_5  and  C4_7 
ROOT
ATOM      1  C2  <0> d           0.002  -0.004   0.002  0.00  0.00     0.165 A 
ATOM      2  N1  <0> d           0.008  -0.769  -1.052  0.00  0.00    -0.127 NA
ATOM      3  N2  <0> d           0.026  -2.002  -0.685  0.00  0.00    -0.127 NA
ATOM      4  C3  <0> d           0.033  -2.066   0.616  0.00  0.00     0.165 A 
ATOM      5  O1  <0> d           0.023  -0.805   1.081  0.00  0.00    -0.278 OA
ENDROOT
BRANCH   1   6
ATOM      6  C1  <0> d          -0.018   1.503   0.010  0.00  0.00    -0.013 C 
ATOM      7  H1  <0> d           1.004   1.880   0.003  0.00  0.00     0.038 H 
ATOM      8  H2  <0> d          -0.545   1.864  -0.873  0.00  0.00     0.038 H 
ATOM      9  H3  <0> d          -0.529   1.854   0.907  0.00  0.00     0.038 H 
ENDBRANCH   1   6
BRANCH   4  10
ATOM     10  C4  <0> d           0.053  -3.322   1.448  0.00  0.00    -0.013 C 
ATOM     11  H4  <0> d           1.085  -3.611   1.644  0.00  0.00     0.038 H 
ATOM     12  H5  <0> d          -0.460  -3.141   2.392  0.00  0.00     0.038 H 
ATOM     13  H6  <0> d          -0.452  -4.123   0.908  0.00  0.00     0.038 H 
ENDBRANCH   4  10
TORSDOF 2
