REMARK  3 active torsions:
REMARK  status: ('A' for Active; 'I' for Inactive)
REMARK    1  A    between atoms: C1_1  and  C2_2 
REMARK    2  A    between atoms: C2_2  and  C3_3 
REMARK    3  A    between atoms: C3_3  and  C4_5 
ROOT
ATOM      1  C4  <0> d           1.102   3.192   0.009  0.00  0.00     0.027 A 
ATOM      2  C5  <0> d           1.171   1.790   0.001  0.00  0.00    -0.067 A 
ATOM      3  C6  <0> d          -0.013   1.076   0.008  0.00  0.00    -0.065 A 
ATOM      4  C7  <0> d          -1.216   1.758   0.017  0.00  0.00     0.002 A 
ATOM      5  N1  <0> d          -1.253   3.077   0.031  0.00  0.00    -0.272 NA
ATOM      6  C8  <0> d          -0.155   3.804   0.024  0.00  0.00     0.015 A 
ATOM      7  H6  <0> d           2.125   1.283  -0.012  0.00  0.00     0.085 H 
ATOM      8  H7  <0> d           0.002  -0.004   0.002  0.00  0.00     0.085 H 
ATOM      9  H8  <0> d          -2.142   1.202   0.018  0.00  0.00     0.114 H 
ATOM     10  H9  <0> d          -0.226   4.882   0.031  0.00  0.00     0.116 H 
ENDROOT
BRANCH   1  11
ATOM     11  C3  <0> d           2.330   4.003   0.002  0.00  0.00     0.160 C 
ATOM     12  O1  <0> d           3.414   3.460  -0.011  0.00  0.00    -0.292 OA
BRANCH  11  13
ATOM     13  C2  <0> d           2.240   5.507   0.011  0.00  0.00    -0.008 C 
ATOM     14  H4  <0> d           1.742   5.816  -0.799  0.00  0.00     0.044 H 
ATOM     15  H5  <0> d           1.713   5.834   0.907  0.00  0.00     0.044 H 
BRANCH  13  16
ATOM     16  C1  <0> d           3.649   6.102   0.001  0.00  0.00    -0.070 C 
ATOM     17  H1  <0> d           4.192   5.766   0.884  0.00  0.00     0.028 H 
ATOM     18  H2  <0> d           4.175   5.775  -0.895  0.00  0.00     0.028 H 
ATOM     19  H3  <0> d           3.583   7.190   0.008  0.00  0.00     0.028 H 
ENDBRANCH  13  16
ENDBRANCH  11  13
ENDBRANCH   1  11
TORSDOF 3
