REMARK  2 active torsions:
REMARK  status: ('A' for Active; 'I' for Inactive)
REMARK    1  A    between atoms: C4_4  and  C7_7 
REMARK    2  A    between atoms: C7_7  and  C8_8 
ROOT
ATOM      1  C8  <0> d          -0.013   1.086   0.008  0.00  0.00     0.018 C 
ATOM      2  C9  <0> d          -0.725   1.573  -1.185  0.00  0.00     0.059 C 
ATOM      3  N1  <0> d          -1.274   1.950  -2.105  0.00  0.00    -0.197 NA
ATOM      4  H8  <0> d           0.002  -0.004   0.002  0.00  0.00     0.055 H 
ATOM      5  H9  <0> d           1.010   1.463   0.000  0.00  0.00     0.055 H 
ENDROOT
BRANCH   1   6
ATOM      6  C7  <0> d          -0.729   1.579   1.267  0.00  0.00    -0.030 C 
ATOM      7  H6  <0> d          -0.744   2.669   1.273  0.00  0.00     0.041 H 
ATOM      8  H7  <0> d          -1.751   1.202   1.275  0.00  0.00     0.041 H 
BRANCH   6   9
ATOM      9  C4  <0> d           0.000   1.080   2.488  0.00  0.00    -0.057 A 
ATOM     10  C3  <0> d           1.012   1.838   3.046  0.00  0.00    -0.077 A 
ATOM     11  C2  <0> d           1.680   1.380   4.167  0.00  0.00    -0.082 A 
ATOM     12  H3  <0> d           1.280   2.788   2.608  0.00  0.00     0.084 H 
ATOM     13  C1  <0> d           1.337   0.164   4.728  0.00  0.00    -0.083 A 
ATOM     14  H2  <0> d           2.471   1.972   4.603  0.00  0.00     0.083 H 
ATOM     15  C6  <0> d           0.325  -0.593   4.169  0.00  0.00    -0.082 A 
ATOM     16  H1  <0> d           1.859  -0.193   5.603  0.00  0.00     0.083 H 
ATOM     17  C5  <0> d          -0.347  -0.133   3.052  0.00  0.00    -0.077 A 
ATOM     18  H5  <0> d           0.056  -1.543   4.608  0.00  0.00     0.083 H 
ATOM     19  H4  <0> d          -1.141  -0.723   2.618  0.00  0.00     0.084 H 
ENDBRANCH   6   9
ENDBRANCH   1   6
TORSDOF 2
