REMARK  3 active torsions:
REMARK  status: ('A' for Active; 'I' for Inactive)
REMARK    1  A    between atoms: C1_1  and  C2_2 
REMARK    2  A    between atoms: C2_2  and  C3_4 
REMARK    3  A    between atoms: C2_2  and  O3_12 
REMARK       I    between atoms: C3_4  and  N1_6 
ROOT
ATOM      1  C3  <0> d          -1.091   0.740  -2.170  0.00  0.00     0.248 C 
ATOM      2  O1  <0> d          -0.817  -0.439  -2.095  0.00  0.00    -0.270 OA
ATOM      3  N1  <0> d          -0.734   1.578  -1.176  0.00  0.00    -0.346 N 
ATOM      4  C4  <0> d          -0.013   1.086   0.008  0.00  0.00     0.017 C 
ATOM      5  C5  <0> d          -0.741   1.585   1.261  0.00  0.00     0.034 C 
ATOM      6  O2  <0> d          -0.919   3.001   1.169  0.00  0.00    -0.388 OA
ATOM      7  C6  <0> d          -1.734   3.418   0.070  0.00  0.00     0.034 C 
ATOM      8  C7  <0> d          -1.056   3.013  -1.243  0.00  0.00     0.017 C 
ATOM      9  H5  <0> d           0.002  -0.004   0.002  0.00  0.00     0.067 H 
ATOM     10  H6  <0> d           1.008   1.467   0.000  0.00  0.00     0.067 H 
ATOM     11  H7  <0> d          -1.714   1.100   1.335  0.00  0.00     0.076 H 
ATOM     12  H8  <0> d          -0.148   1.350   2.145  0.00  0.00     0.076 H 
ATOM     13  H9  <0> d          -1.855   4.501   0.098  0.00  0.00     0.076 H 
ATOM     14  H10 <0> d          -2.711   2.941   0.138  0.00  0.00     0.076 H 
ATOM     15  H11 <0> d          -0.140   3.588  -1.377  0.00  0.00     0.067 H 
ATOM     16  H12 <0> d          -1.731   3.199  -2.079  0.00  0.00     0.067 H 
ENDROOT
BRANCH   1  17
ATOM     17  C2  <0> d          -1.829   1.268  -3.372  0.00  0.00     0.109 C 
ATOM     18  H1  <0> d          -2.728   1.792  -3.046  0.00  0.00     0.097 H 
BRANCH  17  19
ATOM     19  C1  <0> d          -0.926   2.235  -4.141  0.00  0.00    -0.044 C 
ATOM     20  H2  <0> d          -0.028   1.711  -4.468  0.00  0.00     0.031 H 
ATOM     21  H3  <0> d          -1.460   2.616  -5.011  0.00  0.00     0.031 H 
ATOM     22  H4  <0> d          -0.647   3.065  -3.493  0.00  0.00     0.031 H 
ENDBRANCH  17  19
BRANCH  17  23
ATOM     23  O3  <0> d          -2.195   0.179  -4.223  0.00  0.00    -0.387 OA
ATOM     24  H13 <0> d          -2.675   0.446  -5.019  0.00  0.00     0.210 HD
ENDBRANCH  17  23
ENDBRANCH   1  17
TORSDOF 3
