REMARK  2 active torsions:
REMARK  status: ('A' for Active; 'I' for Inactive)
REMARK    1  A    between atoms: C1_1  and  C2_2 
REMARK       I    between atoms: C2_2  and  N1_4 
REMARK    2  A    between atoms: N1_4  and  C3_5 
ROOT
ATOM      1  C3  <0> d          -1.134  -2.081   0.107  0.00  0.00     0.135 A 
ATOM      2  C4  <0> d           0.078  -2.765   0.203  0.00  0.00    -0.021 A 
ATOM      3  C5  <0> d           0.051  -4.143   0.298  0.00  0.00     0.010 A 
ATOM      4  N2  <0> d          -1.117  -4.769   0.294  0.00  0.00    -0.217 NA
ATOM      5  C6  <0> d          -2.251  -4.093   0.202  0.00  0.00     0.301 A 
ATOM      6  O2  <0> d          -3.424  -4.770   0.202  0.00  0.00    -0.147 OA
ATOM      7  N3  <0> d          -2.268  -2.773   0.115  0.00  0.00    -0.187 NA
ATOM      8  H5  <0> d           1.016  -2.229   0.203  0.00  0.00     0.091 H 
ATOM      9  H6  <0> d           0.971  -4.704   0.373  0.00  0.00     0.115 H 
ENDROOT
BRANCH   1  10
ATOM     10  N1  <0> d          -1.156  -0.694   0.009  0.00  0.00    -0.312 N 
ATOM     11  C2  <0> d          -2.332  -0.036   0.020  0.00  0.00     0.219 C 
ATOM     12  O1  <0> d          -3.374  -0.656   0.021  0.00  0.00    -0.274 OA
ATOM     13  H4  <0> d          -0.324  -0.200  -0.066  0.00  0.00     0.170 HD
BRANCH  11  14
ATOM     14  C1  <0> d          -2.352   1.471   0.030  0.00  0.00    -0.002 C 
ATOM     15  H1  <0> d          -3.385   1.821   0.037  0.00  0.00     0.040 H 
ATOM     16  H2  <0> d          -1.839   1.835   0.920  0.00  0.00     0.040 H 
ATOM     17  H3  <0> d          -1.848   1.847  -0.860  0.00  0.00     0.040 H 
ENDBRANCH  11  14
ENDBRANCH   1  10
TORSDOF 2
