REMARK  3 active torsions:
REMARK  status: ('A' for Active; 'I' for Inactive)
REMARK    1  A    between atoms: C3_3  and  O2_9 
REMARK    2  A    between atoms: C6_6  and  C7_7 
REMARK    3  A    between atoms: C7_7  and  O1_8 
ROOT
ATOM      1  C1  <0> d          -0.019   1.526   0.010  0.00  0.00    -0.058 C 
ATOM      2  C2  <0> d           1.417   2.055  -0.000  0.00  0.00    -0.041 C 
ATOM      3  C3  <0> d           2.157   1.548   1.239  0.00  0.00     0.035 C 
ATOM      4  C4  <0> d           2.178   0.019   1.231  0.00  0.00    -0.041 C 
ATOM      5  C5  <0> d           0.742  -0.511   1.242  0.00  0.00    -0.058 C 
ATOM      6  C6  <0> d           0.002  -0.004   0.002  0.00  0.00    -0.034 C 
ATOM      7  H1  <0> d          -0.529   1.877   0.907  0.00  0.00     0.033 H 
ATOM      8  H2  <0> d          -0.546   1.887  -0.873  0.00  0.00     0.033 H 
ATOM      9  H3  <0> d           1.927   1.704  -0.897  0.00  0.00     0.036 H 
ATOM     10  H4  <0> d           1.402   3.145   0.006  0.00  0.00     0.036 H 
ATOM     11  H5  <0> d           3.179   1.926   1.231  0.00  0.00     0.082 H 
ATOM     12  H6  <0> d           2.688  -0.333   0.334  0.00  0.00     0.036 H 
ATOM     13  H7  <0> d           2.705  -0.342   2.114  0.00  0.00     0.036 H 
ATOM     14  H8  <0> d           0.757  -1.601   1.236  0.00  0.00     0.033 H 
ATOM     15  H9  <0> d           0.232  -0.159   2.138  0.00  0.00     0.033 H 
ATOM     16  H10 <0> d           0.512  -0.356  -0.895  0.00  0.00     0.043 H 
ENDROOT
BRANCH   6  17
ATOM     17  C7  <0> d          -1.433  -0.534   0.013  0.00  0.00     0.020 C 
ATOM     18  H11 <0> d          -1.916  -0.257   0.950  0.00  0.00     0.074 H 
ATOM     19  H12 <0> d          -1.986  -0.102  -0.821  0.00  0.00     0.074 H 
BRANCH  17  20
ATOM     20  O1  <0> d          -1.417  -1.957  -0.112  0.00  0.00    -0.400 OA
ATOM     21  H13 <0> d          -2.295  -2.362  -0.113  0.00  0.00     0.209 HD
ENDBRANCH  17  20
ENDBRANCH   6  17
BRANCH   3  22
ATOM     22  O2  <0> d           1.488   2.009   2.415  0.00  0.00    -0.396 OA
ATOM     23  H14 <0> d           1.903   1.725   3.240  0.00  0.00     0.210 HD
ENDBRANCH   3  22
TORSDOF 3
