REMARK  3 active torsions:
REMARK  status: ('A' for Active; 'I' for Inactive)
REMARK    1  A    between atoms: C1_1  and  N1_2 
REMARK    2  A    between atoms: C2_3  and  C4_7 
REMARK    3  A    between atoms: C4_7  and  C5_9 
ROOT
ATOM      1  N1  <0> d          -0.736   3.065   0.026  0.00  0.00    -0.253 N 
ATOM      2  C2  <0> d           0.623   3.116   0.013  0.00  0.00     0.194 A 
ATOM      3  N2  <0> d           1.056   1.865   0.002  0.00  0.00    -0.218 NA
ATOM      4  C3  <0> d          -0.013   1.076   0.008  0.00  0.00     0.108 A 
ATOM      5  N3  <0> d          -1.087   1.825   0.017  0.00  0.00    -0.164 NA
ATOM      6  H4  <0> d           0.002  -0.004   0.002  0.00  0.00     0.149 H 
ENDROOT
BRANCH   2   7
ATOM      7  C4  <0> d           1.453   4.329   0.012  0.00  0.00     0.200 C 
ATOM      8  O1  <0> d           0.929   5.422   0.023  0.00  0.00    -0.289 OA
BRANCH   7   9
ATOM      9  C5  <0> d           2.956   4.213  -0.003  0.00  0.00     0.012 A 
ATOM     10  C7  <0> d           3.749   5.390  -0.576  0.00  0.00    -0.054 A 
ATOM     11  C6  <0> d           3.744   5.131   0.933  0.00  0.00    -0.054 A 
ATOM     12  H8  <0> d           4.664   5.162  -1.123  0.00  0.00     0.034 H 
ATOM     13  H9  <0> d           3.184   6.247  -0.942  0.00  0.00     0.034 H 
ATOM     14  H6  <0> d           3.176   5.819   1.560  0.00  0.00     0.034 H 
ATOM     15  H7  <0> d           4.656   4.733   1.378  0.00  0.00     0.034 H 
ATOM     16  H5  <0> d           3.215   3.261  -0.166  0.00  0.00     0.052 H 
ENDBRANCH   7   9
ENDBRANCH   2   7
BRANCH   1  17
ATOM     17  C1  <0> d          -1.641   4.217   0.041  0.00  0.00     0.004 C 
ATOM     18  H1  <0> d          -1.875   4.509  -0.983  0.00  0.00     0.059 H 
ATOM     19  H2  <0> d          -2.560   3.950   0.562  0.00  0.00     0.059 H 
ATOM     20  H3  <0> d          -1.160   5.050   0.555  0.00  0.00     0.059 H 
ENDBRANCH   1  17
TORSDOF 3
