REMARK  5 active torsions:
REMARK  status: ('A' for Active; 'I' for Inactive)
REMARK    1  A    between atoms: C1_1  and  O1_2 
REMARK    2  A    between atoms: O1_2  and  C2_3 
REMARK    3  A    between atoms: C2_3  and  C3_4 
REMARK    4  A    between atoms: C2_3  and  O3_10 
REMARK    5  A    between atoms: O3_10  and  C7_11 
ROOT
ATOM      1  C3  <0> d           0.748  -2.147  -1.482  0.00  0.00     0.086 C 
ATOM      2  H1  <0> d           1.427  -2.555  -0.733  0.00  0.00     0.090 H 
ATOM      3  C4  <0> d           1.162  -2.634  -2.887  0.00  0.00    -0.034 C 
ATOM      4  C5  <0> d           0.194  -3.826  -3.120  0.00  0.00    -0.043 C 
ATOM      5  C6  <0> d          -1.074  -3.324  -2.384  0.00  0.00     0.020 C 
ATOM      6  O2  <0> d          -0.584  -2.612  -1.234  0.00  0.00    -0.381 OA
ATOM      7  H6  <0> d           1.002  -1.854  -3.631  0.00  0.00     0.037 H 
ATOM      8  H7  <0> d           2.199  -2.970  -2.891  0.00  0.00     0.037 H 
ATOM      9  H8  <0> d          -0.001  -3.972  -4.183  0.00  0.00     0.036 H 
ATOM     10  H9  <0> d           0.577  -4.739  -2.664  0.00  0.00     0.036 H 
ATOM     11  H10 <0> d          -1.646  -2.656  -3.028  0.00  0.00     0.074 H 
ATOM     12  H11 <0> d          -1.689  -4.168  -2.072  0.00  0.00     0.074 H 
ENDROOT
BRANCH   1  13
ATOM     13  C2  <0> d           0.781  -0.618  -1.432  0.00  0.00     0.154 C 
ATOM     14  H5  <0> d           1.767  -0.266  -1.735  0.00  0.00     0.133 H 
BRANCH  13  15
ATOM     15  O1  <0> d           0.506  -0.178  -0.100  0.00  0.00    -0.363 OA
BRANCH  15  16
ATOM     16  C1  <0> d           0.938   1.157   0.172  0.00  0.00     0.007 C 
ATOM     17  H2  <0> d           1.985   1.264  -0.110  0.00  0.00     0.066 H 
ATOM     18  H3  <0> d           0.333   1.858  -0.403  0.00  0.00     0.066 H 
ATOM     19  H4  <0> d           0.824   1.365   1.235  0.00  0.00     0.066 H 
ENDBRANCH  15  16
ENDBRANCH  13  15
BRANCH  13  20
ATOM     20  O3  <0> d          -0.207  -0.091  -2.321  0.00  0.00    -0.363 OA
BRANCH  20  21
ATOM     21  C7  <0> d          -0.002   1.279  -2.671  0.00  0.00     0.007 C 
ATOM     22  H12 <0> d          -0.353   1.918  -1.861  0.00  0.00     0.066 H 
ATOM     23  H13 <0> d           1.061   1.456  -2.839  0.00  0.00     0.066 H 
ATOM     24  H14 <0> d          -0.556   1.508  -3.581  0.00  0.00     0.066 H 
ENDBRANCH  20  21
ENDBRANCH  13  20
ENDBRANCH   1  13
TORSDOF 5
