REMARK  2 active torsions:
REMARK  status: ('A' for Active; 'I' for Inactive)
REMARK    1  A    between atoms: C1_1  and  C2_2 
REMARK    2  A    between atoms: C6_9  and  N5_11 
ROOT
ATOM      1  C2  <0> d           0.002  -0.004   0.002  0.00  0.00     0.052 A 
ATOM      2  C3  <0> d           0.006  -0.687  -1.173  0.00  0.00    -0.041 A 
ATOM      3  C4  <0> d           0.025  -2.086  -1.150  0.00  0.00     0.023 A 
ATOM      4  N1  <0> d           0.039  -2.730  -0.004  0.00  0.00    -0.073 NA
ATOM      5  C5  <0> d           0.035  -2.066   1.157  0.00  0.00     0.765 A 
ATOM      6  N2  <0> d           0.023  -0.699   1.169  0.00  0.00    -0.048 N 
ATOM      7  N3  <0> d           0.029  -0.313   2.516  0.00  0.00     0.041 NA
ATOM      8  C6  <0> d           0.051  -1.418   3.233  0.00  0.00     0.753 A 
ATOM      9  N4  <0> d           0.046  -2.473   2.422  0.00  0.00     0.133 NA
ATOM     10  H4  <0> d          -0.006  -0.156  -2.113  0.00  0.00     0.088 H 
ATOM     11  H5  <0> d           0.028  -2.639  -2.078  0.00  0.00     0.115 H 
ENDROOT
BRANCH   1  12
ATOM     12  C1  <0> d          -0.018   1.503   0.010  0.00  0.00    -0.035 C 
ATOM     13  H1  <0> d           1.004   1.880   0.003  0.00  0.00     0.035 H 
ATOM     14  H2  <0> d          -0.545   1.864  -0.873  0.00  0.00     0.035 H 
ATOM     15  H3  <0> d          -0.529   1.854   0.907  0.00  0.00     0.035 H 
ENDBRANCH   1  12
BRANCH   8  16
ATOM     16  N5  <0> d           0.064  -1.474   4.624  0.00  0.00    -0.229 N 
ATOM     17  H6  <0> d           0.057  -0.654   5.142  0.00  0.00     0.174 HD
ATOM     18  H7  <0> d           0.080  -2.332   5.075  0.00  0.00     0.174 HD
ENDBRANCH   8  16
TORSDOF 2
