REMARK  1 active torsions:
REMARK  status: ('A' for Active; 'I' for Inactive)
REMARK    1  A    between atoms: C5_6  and  N3_10 
ROOT
ATOM      1  C1  <0> d          -2.682  -0.511   0.011  0.00  0.00    -0.060 A 
ATOM      2  C2  <0> d          -3.944  -0.966   0.014  0.00  0.00    -0.042 A 
ATOM      3  S1  <0> d          -4.924   0.524   0.028  0.00  0.00    -0.081 SA
ATOM      4  C3  <0> d          -3.612   1.717   0.029  0.00  0.00     0.112 A 
ATOM      5  C4  <0> d          -2.445   0.922   0.019  0.00  0.00     0.046 A 
ATOM      6  C5  <0> d          -1.218   1.641   0.017  0.00  0.00     0.135 A 
ATOM      7  N1  <0> d          -1.246   2.964   0.030  0.00  0.00    -0.224 NA
ATOM      8  C6  <0> d          -2.378   3.644   0.034  0.00  0.00     0.090 A 
ATOM      9  N2  <0> d          -3.547   3.034   0.036  0.00  0.00    -0.234 NA
ATOM     10  H1  <0> d          -1.852  -1.202   0.003  0.00  0.00     0.085 H 
ATOM     11  H2  <0> d          -4.285  -1.990   0.010  0.00  0.00     0.095 H 
ATOM     12  H3  <0> d          -2.346   4.724   0.040  0.00  0.00     0.146 H 
ENDROOT
BRANCH   6  13
ATOM     13  N3  <0> d          -0.011   0.966   0.007  0.00  0.00    -0.383 N 
ATOM     14  H4  <0> d           0.002  -0.004   0.002  0.00  0.00     0.157 HD
ATOM     15  H5  <0> d           0.822   1.462   0.002  0.00  0.00     0.157 HD
ENDBRANCH   6  13
TORSDOF 1
