REMARK  4 active torsions:
REMARK  status: ('A' for Active; 'I' for Inactive)
REMARK    1  A    between atoms: C3_3  and  C6_10 
REMARK    2  A    between atoms: C4_6  and  C5_8 
REMARK    3  A    between atoms: C5_8  and  O2_9 
REMARK    4  A    between atoms: C6_10  and  O3_11 
ROOT
ATOM      1  C1  <0> d           0.615  -0.512  -1.321  0.00  0.00    -0.036 C 
ATOM      2  C2  <0> d           1.466  -1.723  -0.845  0.00  0.00    -0.036 C 
ATOM      3  C3  <0> d           1.934  -1.226   0.546  0.00  0.00     0.059 C 
ATOM      4  H1  <0> d           2.805  -0.579   0.445  0.00  0.00     0.086 H 
ATOM      5  O1  <0> d           0.822  -0.485   1.074  0.00  0.00    -0.376 OA
ATOM      6  C4  <0> d           0.002  -0.004   0.002  0.00  0.00     0.059 C 
ATOM      7  H2  <0> d          -1.012  -0.388   0.112  0.00  0.00     0.086 H 
ATOM      8  H3  <0> d          -0.165  -0.833  -2.012  0.00  0.00     0.036 H 
ATOM      9  H4  <0> d           1.246   0.251  -1.774  0.00  0.00     0.036 H 
ATOM     10  H5  <0> d           2.314  -1.892  -1.508  0.00  0.00     0.036 H 
ATOM     11  H6  <0> d           0.855  -2.621  -0.756  0.00  0.00     0.036 H 
ENDROOT
BRANCH   3  12
ATOM     12  C6  <0> d           2.258  -2.414   1.453  0.00  0.00     0.041 C 
ATOM     13  H10 <0> d           1.358  -3.009   1.608  0.00  0.00     0.077 H 
ATOM     14  H11 <0> d           3.025  -3.031   0.984  0.00  0.00     0.077 H 
BRANCH  12  15
ATOM     15  O3  <0> d           2.736  -1.936   2.713  0.00  0.00    -0.398 OA
ATOM     16  H12 <0> d           2.961  -2.637   3.340  0.00  0.00     0.209 HD
ENDBRANCH  12  15
ENDBRANCH   3  12
BRANCH   6  17
ATOM     17  C5  <0> d          -0.019   1.526   0.010  0.00  0.00     0.041 C 
ATOM     18  H7  <0> d           1.004   1.903   0.003  0.00  0.00     0.077 H 
ATOM     19  H8  <0> d          -0.546   1.887  -0.873  0.00  0.00     0.077 H 
BRANCH  17  20
ATOM     20  O2  <0> d          -0.688   1.987   1.186  0.00  0.00    -0.398 OA
ATOM     21  H9  <0> d          -0.738   2.950   1.258  0.00  0.00     0.209 HD
ENDBRANCH  17  20
ENDBRANCH   6  17
TORSDOF 4
