REMARK  4 active torsions:
REMARK  status: ('A' for Active; 'I' for Inactive)
REMARK    1  A    between atoms: C1_1  and  C2_2 
REMARK    2  A    between atoms: C2_2  and  C3_3 
REMARK    3  A    between atoms: C6_6  and  C9_10 
REMARK    4  A    between atoms: C7_7  and  N1_9 
ROOT
ATOM      1  C3  <0> d          -0.718   1.572   1.248  0.00  0.00    -0.056 A 
ATOM      2  C4  <0> d          -0.359   2.780   1.818  0.00  0.00    -0.076 A 
ATOM      3  C5  <0> d          -1.008   3.232   2.953  0.00  0.00    -0.075 A 
ATOM      4  C6  <0> d          -2.009   2.473   3.526  0.00  0.00    -0.036 A 
ATOM      5  C7  <0> d          -2.368   1.257   2.959  0.00  0.00     0.032 A 
ATOM      6  C8  <0> d          -1.718   0.808   1.817  0.00  0.00    -0.051 A 
ATOM      7  H6  <0> d           0.427   3.373   1.374  0.00  0.00     0.084 H 
ATOM      8  H7  <0> d          -0.728   4.178   3.393  0.00  0.00     0.084 H 
ATOM      9  H8  <0> d          -1.995  -0.137   1.373  0.00  0.00     0.087 H 
ENDROOT
BRANCH   1  10
ATOM     10  C2  <0> d          -0.013   1.086   0.008  0.00  0.00    -0.044 C 
ATOM     11  H4  <0> d           0.002  -0.014   0.002  0.00  0.00     0.039 H 
ATOM     12  H5  <0> d           1.019   1.466   0.000  0.00  0.00     0.039 H 
BRANCH  10  13
ATOM     13  C1  <0> d          -0.753   1.593  -1.232  0.00  0.00    -0.073 C 
ATOM     14  H1  <0> d          -0.238   1.238  -2.136  0.00  0.00     0.028 H 
ATOM     15  H2  <0> d          -0.768   2.693  -1.225  0.00  0.00     0.028 H 
ATOM     16  H3  <0> d          -1.785   1.212  -1.224  0.00  0.00     0.028 H 
ENDBRANCH  10  13
ENDBRANCH   1  10
BRANCH   5  17
ATOM     17  N1  <0> d          -3.380   0.487   3.537  0.00  0.00    -0.399 N 
ATOM     18  H9  <0> d          -3.664  -0.476   3.087  0.00  0.00     0.156 HD
ATOM     19  H10 <0> d          -3.894   0.844   4.442  0.00  0.00     0.156 HD
ENDBRANCH   5  17
BRANCH   4  20
ATOM     20  C9  <0> d          -2.711   2.964   4.766  0.00  0.00    -0.049 C 
ATOM     21  H11 <0> d          -3.471   2.230   5.072  0.00  0.00     0.033 H 
ATOM     22  H12 <0> d          -3.197   3.928   4.555  0.00  0.00     0.033 H 
ATOM     23  H13 <0> d          -1.978   3.093   5.576  0.00  0.00     0.033 H 
ENDBRANCH   4  20
TORSDOF 4
