REMARK  3 active torsions:
REMARK  status: ('A' for Active; 'I' for Inactive)
REMARK    1  A    between atoms: C1_1  and  N1_2 
REMARK       I    between atoms: N1_2  and  C2_3 
REMARK    2  A    between atoms: C2_3  and  C3_5 
REMARK    3  A    between atoms: C3_5  and  N2_6 
ROOT
ATOM      1  C3  <0> d          -1.135  -2.201   0.001  0.00  0.00     0.089 C 
ATOM      2  H5  <0> d          -0.625  -2.552  -0.896  0.00  0.00     0.082 H 
ATOM      3  H6  <0> d          -0.608  -2.562   0.884  0.00  0.00     0.082 H 
ENDROOT
BRANCH   1   4
ATOM      4  C2  <0> d          -1.156  -0.694   0.009  0.00  0.00     0.237 C 
ATOM      5  N1  <0> d           0.002  -0.004   0.002  0.00  0.00    -0.364 N 
ATOM      6  H4  <0> d           0.849  -0.478  -0.009  0.00  0.00     0.161 HD
ATOM      7  O1  <0> d          -2.214  -0.102   0.023  0.00  0.00    -0.272 OA
BRANCH   5   8
ATOM      8  C1  <0> d          -0.018   1.461   0.010  0.00  0.00    -0.018 C 
ATOM      9  H1  <0> d           1.005   1.838   0.002  0.00  0.00     0.056 H 
ATOM     10  H2  <0> d          -0.545   1.822  -0.873  0.00  0.00     0.056 H 
ATOM     11  H3  <0> d          -0.528   1.812   0.907  0.00  0.00     0.056 H 
ENDBRANCH   5   8
ENDBRANCH   1   4
BRANCH   1  12
ATOM     12  N2  <0> d          -2.510  -2.708   0.011  0.00  0.00    -0.273 N 
ATOM     13  N3  <0> d          -3.499  -2.389   0.951  0.00  0.00    -0.185 NA
ATOM     14  C6  <0> d          -4.592  -3.030   0.627  0.00  0.00     0.023 A 
ATOM     15  C5  <0> d          -4.332  -3.785  -0.521  0.00  0.00    -0.048 A 
ATOM     16  H9  <0> d          -5.532  -2.989   1.158  0.00  0.00     0.117 H 
ATOM     17  C4  <0> d          -3.045  -3.569  -0.879  0.00  0.00     0.000 A 
ATOM     18  H8  <0> d          -5.034  -4.427  -1.032  0.00  0.00     0.087 H 
ATOM     19  H7  <0> d          -2.537  -4.007  -1.726  0.00  0.00     0.114 H 
ENDBRANCH   1  12
TORSDOF 3
