REMARK  5 active torsions:
REMARK  status: ('A' for Active; 'I' for Inactive)
REMARK    1  A    between atoms: C1_1  and  C2_2 
REMARK    2  A    between atoms: C3_3  and  C4_4 
REMARK    3  A    between atoms: C5_5  and  C6_6 
REMARK    4  A    between atoms: C6_6  and  C7_7 
REMARK    5  A    between atoms: C7_7  and  O1_8 
ROOT
ATOM      1  C4  <0> d          -1.120  -2.116   0.001  0.00  0.00    -0.079 C 
ATOM      2  C5  <0> d          -1.104  -3.290  -0.005  0.00  0.00    -0.100 C 
ENDROOT
BRANCH   1   3
ATOM      3  C3  <0> d          -1.139  -0.684   0.009  0.00  0.00    -0.037 C 
ATOM      4  C2  <0> d           0.002  -0.004   0.002  0.00  0.00    -0.099 C 
ATOM      5  H4  <0> d           0.945  -0.531  -0.010  0.00  0.00     0.077 H 
ATOM      6  H5  <0> d          -2.082  -0.157   0.021  0.00  0.00     0.097 H 
BRANCH   4   7
ATOM      7  C1  <0> d          -0.018   1.503   0.010  0.00  0.00    -0.059 C 
ATOM      8  H1  <0> d           1.004   1.880   0.003  0.00  0.00     0.032 H 
ATOM      9  H2  <0> d          -0.545   1.864  -0.873  0.00  0.00     0.032 H 
ATOM     10  H3  <0> d          -0.529   1.854   0.907  0.00  0.00     0.032 H 
ENDBRANCH   4   7
ENDBRANCH   1   3
BRANCH   2  11
ATOM     11  C6  <0> d          -1.084  -4.762  -0.013  0.00  0.00     0.011 C 
ATOM     12  H6  <0> d          -0.574  -5.113  -0.910  0.00  0.00     0.055 H 
ATOM     13  H7  <0> d          -0.557  -5.123   0.870  0.00  0.00     0.055 H 
BRANCH  11  14
ATOM     14  C7  <0> d          -2.520  -5.291  -0.002  0.00  0.00     0.026 C 
ATOM     15  H8  <0> d          -3.030  -4.940   0.894  0.00  0.00     0.075 H 
ATOM     16  H9  <0> d          -3.047  -4.930  -0.885  0.00  0.00     0.075 H 
BRANCH  14  17
ATOM     17  O1  <0> d          -2.500  -6.720  -0.010  0.00  0.00    -0.400 OA
ATOM     18  H10 <0> d          -3.378  -7.125  -0.004  0.00  0.00     0.209 HD
ENDBRANCH  14  17
ENDBRANCH  11  14
ENDBRANCH   2  11
TORSDOF 5
