REMARK  5 active torsions:
REMARK  status: ('A' for Active; 'I' for Inactive)
REMARK    1  A    between atoms: C1_1  and  C2_2 
REMARK    2  A    between atoms: C4_4  and  O2_10 
REMARK    3  A    between atoms: C7_7  and  O1_8 
REMARK    4  A    between atoms: O1_8  and  C8_9 
REMARK    5  A    between atoms: O2_10  and  C9_11 
ROOT
ATOM      1  C2  <0> d           1.160   3.172   0.007  0.00  0.00    -0.026 A 
ATOM      2  C3  <0> d          -0.045   3.847   0.022  0.00  0.00    -0.042 A 
ATOM      3  C4  <0> d          -1.237   3.137   0.030  0.00  0.00     0.068 A 
ATOM      4  C5  <0> d          -1.218   1.750   0.017  0.00  0.00    -0.048 A 
ATOM      5  C6  <0> d          -0.013   1.076   0.008  0.00  0.00    -0.048 A 
ATOM      6  C7  <0> d           1.179   1.786   0.000  0.00  0.00     0.074 A 
ATOM      7  H4  <0> d          -0.060   4.927   0.027  0.00  0.00     0.088 H 
ATOM      8  H5  <0> d          -2.146   1.197   0.019  0.00  0.00     0.087 H 
ATOM      9  H6  <0> d           0.002  -0.004   0.002  0.00  0.00     0.087 H 
ENDROOT
BRANCH   3  10
ATOM     10  O2  <0> d          -2.423   3.801   0.044  0.00  0.00    -0.356 OA
BRANCH  10  11
ATOM     11  C9  <0> d          -3.611   3.006   0.052  0.00  0.00     0.010 C 
ATOM     12  H10 <0> d          -3.636   2.381  -0.841  0.00  0.00     0.066 H 
ATOM     13  H11 <0> d          -3.619   2.373   0.939  0.00  0.00     0.066 H 
ATOM     14  H12 <0> d          -4.484   3.659   0.063  0.00  0.00     0.066 H 
ENDBRANCH  10  11
ENDBRANCH   3  10
BRANCH   1  15
ATOM     15  C1  <0> d           2.455   3.943  -0.001  0.00  0.00    -0.049 C 
ATOM     16  H1  <0> d           2.758   4.134  -1.031  0.00  0.00     0.033 H 
ATOM     17  H2  <0> d           2.317   4.892   0.518  0.00  0.00     0.033 H 
ATOM     18  H3  <0> d           3.227   3.362   0.503  0.00  0.00     0.033 H 
ENDBRANCH   1  15
BRANCH   6  19
ATOM     19  O1  <0> d           2.366   1.122  -0.014  0.00  0.00    -0.355 OA
BRANCH  19  20
ATOM     20  C8  <0> d           2.311  -0.306  -0.021  0.00  0.00     0.010 C 
ATOM     21  H7  <0> d           1.791  -0.654   0.872  0.00  0.00     0.066 H 
ATOM     22  H8  <0> d           1.775  -0.645  -0.907  0.00  0.00     0.066 H 
ATOM     23  H9  <0> d           3.323  -0.709  -0.032  0.00  0.00     0.066 H 
ENDBRANCH  19  20
ENDBRANCH   6  19
TORSDOF 5
