REMARK  2 active torsions:
REMARK  status: ('A' for Active; 'I' for Inactive)
REMARK    1  A    between atoms: C1_1  and  C2_2 
REMARK    2  A    between atoms: C7_8  and  N1_10 
REMARK       I    between atoms: N1_10  and  C8_11 
REMARK       I    between atoms: C8_11  and  N2_13 
ROOT
ATOM      1  C2  <0> d           1.310  -0.493  -0.623  0.00  0.00    -0.038 C 
ATOM      2  H1  <0> d           1.325  -1.583  -0.629  0.00  0.00     0.042 H 
ATOM      3  C3  <0> d           2.493   0.029   0.196  0.00  0.00    -0.060 C 
ATOM      4  C4  <0> d           2.388  -0.491   1.631  0.00  0.00    -0.065 C 
ATOM      5  C5  <0> d           1.079  -0.002   2.256  0.00  0.00    -0.063 C 
ATOM      6  C6  <0> d          -0.103  -0.523   1.437  0.00  0.00    -0.046 C 
ATOM      7  C7  <0> d           0.002  -0.004   0.002  0.00  0.00     0.017 C 
ATOM      8  H2  <0> d          -0.840  -0.376  -0.581  0.00  0.00     0.073 H 
ATOM      9  H6  <0> d           2.478   1.119   0.202  0.00  0.00     0.033 H 
ATOM     10  H7  <0> d           3.425  -0.320  -0.249  0.00  0.00     0.033 H 
ATOM     11  H8  <0> d           3.230  -0.119   2.215  0.00  0.00     0.033 H 
ATOM     12  H9  <0> d           2.402  -1.581   1.625  0.00  0.00     0.033 H 
ATOM     13  H10 <0> d           1.065   1.088   2.262  0.00  0.00     0.033 H 
ATOM     14  H11 <0> d           1.005  -0.372   3.279  0.00  0.00     0.033 H 
ATOM     15  H12 <0> d          -1.035  -0.175   1.882  0.00  0.00     0.036 H 
ATOM     16  H13 <0> d          -0.088  -1.613   1.431  0.00  0.00     0.036 H 
ENDROOT
BRANCH   7  17
ATOM     17  N1  <0> d          -0.018   1.461   0.010  0.00  0.00    -0.338 N 
ATOM     18  C8  <0> d          -1.194   2.119   0.019  0.00  0.00     0.314 C 
ATOM     19  O1  <0> d          -2.239   1.496   0.021  0.00  0.00    -0.248 OA
ATOM     20  N2  <0> d          -1.212   3.466   0.027  0.00  0.00    -0.352 N 
ATOM     21  H15 <0> d          -0.379   3.963   0.025  0.00  0.00     0.160 HD
ATOM     22  H16 <0> d          -2.059   3.940   0.033  0.00  0.00     0.160 HD
ATOM     23  H14 <0> d           0.816   1.957   0.005  0.00  0.00     0.164 HD
ENDBRANCH   7  17
BRANCH   1  24
ATOM     24  C1  <0> d           1.415   0.026  -2.058  0.00  0.00    -0.071 C 
ATOM     25  H3  <0> d           1.401   1.116  -2.052  0.00  0.00     0.028 H 
ATOM     26  H4  <0> d           2.347  -0.322  -2.503  0.00  0.00     0.028 H 
ATOM     27  H5  <0> d           0.573  -0.345  -2.642  0.00  0.00     0.028 H 
ENDBRANCH   1  24
TORSDOF 2
