REMARK  2 active torsions:
REMARK  status: ('A' for Active; 'I' for Inactive)
REMARK    1  A    between atoms: C1_1  and  N1_2 
REMARK    2  A    between atoms: C5_6  and  O1_11 
ROOT
ATOM      1  N1  <0> d           0.002  -0.004   0.002  0.00  0.00    -0.284 N 
ATOM      2  C2  <0> d           0.007  -0.768  -1.100  0.00  0.00     0.010 A 
ATOM      3  C3  <0> d           0.028  -2.091  -0.700  0.00  0.00     0.014 A 
ATOM      4  C4  <0> d           0.041  -3.332  -1.373  0.00  0.00    -0.037 A 
ATOM      5  C5  <0> d           0.060  -4.485  -0.650  0.00  0.00     0.066 A 
ATOM      6  C6  <0> d           0.067  -4.474   0.751  0.00  0.00    -0.049 A 
ATOM      7  C7  <0> d           0.054  -3.315   1.455  0.00  0.00    -0.050 A 
ATOM      8  C8  <0> d           0.035  -2.081   0.771  0.00  0.00     0.088 A 
ATOM      9  N2  <0> d           0.024  -0.814   1.143  0.00  0.00    -0.173 NA
ATOM     10  H4  <0> d          -0.003  -0.412  -2.120  0.00  0.00     0.115 H 
ATOM     11  H5  <0> d           0.036  -3.367  -2.452  0.00  0.00     0.089 H 
ATOM     12  H6  <0> d           0.082  -5.413   1.284  0.00  0.00     0.087 H 
ATOM     13  H7  <0> d           0.058  -3.337   2.535  0.00  0.00     0.087 H 
ENDROOT
BRANCH   1  14
ATOM     14  C1  <0> d          -0.018   1.461   0.010  0.00  0.00     0.002 C 
ATOM     15  H1  <0> d           1.005   1.838   0.002  0.00  0.00     0.059 H 
ATOM     16  H2  <0> d          -0.545   1.822  -0.873  0.00  0.00     0.059 H 
ATOM     17  H3  <0> d          -0.528   1.812   0.907  0.00  0.00     0.059 H 
ENDBRANCH   1  14
BRANCH   5  18
ATOM     18  O1  <0> d           0.073  -5.677  -1.304  0.00  0.00    -0.361 OA
ATOM     19  H8  <0> d           0.961  -6.010  -1.497  0.00  0.00     0.217 HD
ENDBRANCH   5  18
TORSDOF 2
