REMARK  0 active torsions:
REMARK  status: ('A' for Active; 'I' for Inactive)
ROOT
ATOM      1  C1  <0> d          -0.017   1.407   0.010  0.00  0.00    -0.021 A 
ATOM      2  C2  <0> d           1.168   2.075   0.002  0.00  0.00     0.010 A 
ATOM      3  N1  <0> d           2.324   1.406  -0.013  0.00  0.00    -0.218 NA
ATOM      4  C3  <0> d           2.366   0.095  -0.021  0.00  0.00     0.285 A 
ATOM      5  O1  <0> d           3.562  -0.533  -0.035  0.00  0.00    -0.148 OA
ATOM      6  N2  <0> d           1.220  -0.643  -0.013  0.00  0.00    -0.267 N 
ATOM      7  C4  <0> d           0.002  -0.004   0.002  0.00  0.00     0.138 A 
ATOM      8  N3  <0> d          -0.945  -0.925   0.005  0.00  0.00    -0.241 NA
ATOM      9  C5  <0> d          -0.379  -2.138  -0.007  0.00  0.00     0.020 A 
ATOM     10  C6  <0> d           0.963  -1.989  -0.017  0.00  0.00     0.007 A 
ATOM     11  H1  <0> d          -0.953   1.946   0.026  0.00  0.00     0.091 H 
ATOM     12  H2  <0> d           1.174   3.155   0.008  0.00  0.00     0.115 H 
ATOM     13  H3  <0> d          -0.908  -3.079  -0.007  0.00  0.00     0.117 H 
ATOM     14  H4  <0> d           1.696  -2.781  -0.029  0.00  0.00     0.114 H 
ENDROOT
TORSDOF 0
