REMARK  5 active torsions:
REMARK  status: ('A' for Active; 'I' for Inactive)
REMARK    1  A    between atoms: C1_1  and  C2_2 
REMARK    2  A    between atoms: C2_2  and  C3_3 
REMARK    3  A    between atoms: C3_3  and  C4_5 
REMARK    4  A    between atoms: C3_3  and  N1_6 
REMARK    5  A    between atoms: C5_7  and  N3_13 
ROOT
ATOM      1  C3  <0> d           0.718  -0.497  -1.257  0.00  0.00     0.031 C 
ATOM      2  H1  <0> d           0.244  -0.064  -2.138  0.00  0.00     0.075 H 
ENDROOT
BRANCH   1   3
ATOM      3  C2  <0> d           0.002  -0.004   0.002  0.00  0.00    -0.048 C 
ATOM      4  H6  <0> d           0.529  -0.365   0.885  0.00  0.00     0.035 H 
ATOM      5  H7  <0> d          -1.020  -0.381   0.010  0.00  0.00     0.035 H 
BRANCH   3   6
ATOM      6  C1  <0> d          -0.019   1.526   0.010  0.00  0.00    -0.075 C 
ATOM      7  H3  <0> d           1.004   1.903   0.003  0.00  0.00     0.027 H 
ATOM      8  H4  <0> d          -0.546   1.887  -0.873  0.00  0.00     0.027 H 
ATOM      9  H5  <0> d          -0.529   1.877   0.907  0.00  0.00     0.027 H 
ENDBRANCH   3   6
ENDBRANCH   1   3
BRANCH   1  10
ATOM     10  C4  <0> d           0.630  -2.023  -1.329  0.00  0.00    -0.055 C 
ATOM     11  H8  <0> d          -0.416  -2.326  -1.364  0.00  0.00     0.030 H 
ATOM     12  H9  <0> d           1.141  -2.375  -2.225  0.00  0.00     0.030 H 
ATOM     13  H10 <0> d           1.104  -2.456  -0.448  0.00  0.00     0.030 H 
ENDBRANCH   1  10
BRANCH   1  14
ATOM     14  N1  <0> d           2.125  -0.091  -1.209  0.00  0.00    -0.270 N 
ATOM     15  N2  <0> d           3.054  -0.451  -0.224  0.00  0.00    -0.262 N 
ATOM     16  C7  <0> d           4.234   0.119  -0.537  0.00  0.00     0.263 A 
ATOM     17  H2  <0> d           2.878  -1.013   0.547  0.00  0.00     0.190 HD
ATOM     18  C6  <0> d           4.062   0.853  -1.720  0.00  0.00     0.027 A 
ATOM     19  O1  <0> d           5.269   0.019   0.099  0.00  0.00    -0.267 OA
ATOM     20  C5  <0> d           2.763   0.713  -2.118  0.00  0.00     0.121 A 
ATOM     21  H11 <0> d           4.823   1.427  -2.227  0.00  0.00     0.098 H 
BRANCH  20  22
ATOM     22  N3  <0> d           2.196   1.278  -3.232  0.00  0.00    -0.384 N 
ATOM     23  H12 <0> d           1.261   1.120  -3.433  0.00  0.00     0.157 HD
ATOM     24  H13 <0> d           2.732   1.835  -3.819  0.00  0.00     0.157 HD
ENDBRANCH  20  22
ENDBRANCH   1  14
TORSDOF 5
