REMARK  0 active torsions:
REMARK  status: ('A' for Active; 'I' for Inactive)
ROOT
ATOM      1  C1  <0> d          -3.264   2.618   0.047  0.00  0.00     0.126 A 
ATOM      2  N1  <0> d          -2.527   1.483   0.034  0.00  0.00    -0.141 NA
ATOM      3  N2  <0> d          -1.184   1.878   0.018  0.00  0.00    -0.002 N 
ATOM      4  C2  <0> d          -1.185   3.248   0.031  0.00  0.00     0.756 A 
ATOM      5  N3  <0> d          -2.465   3.653   0.045  0.00  0.00    -0.052 NA
ATOM      6  N4  <0> d          -0.026   3.898   0.023  0.00  0.00    -0.054 NA
ATOM      7  C3  <0> d           1.116   3.226   0.009  0.00  0.00     0.111 A 
ATOM      8  N5  <0> d           1.132   1.907   0.002  0.00  0.00    -0.184 NA
ATOM      9  C4  <0> d          -0.015   1.215   0.009  0.00  0.00     0.385 A 
ATOM     10  O1  <0> d           0.002  -0.004   0.002  0.00  0.00    -0.242 OA
ATOM     11  H1  <0> d          -4.343   2.661   0.058  0.00  0.00     0.150 H 
ATOM     12  H2  <0> d           2.050   3.768   0.003  0.00  0.00     0.147 H 
ENDROOT
TORSDOF 0
