REMARK  5 active torsions:
REMARK  status: ('A' for Active; 'I' for Inactive)
REMARK    1  A    between atoms: C1_1  and  O1_2 
REMARK    2  A    between atoms: O1_2  and  C2_3 
REMARK    3  A    between atoms: C2_3  and  C3_4 
REMARK    4  A    between atoms: C3_4  and  C4_5 
REMARK    5  A    between atoms: C4_5  and  O2_6 
ROOT
ATOM      1  C2  <0> d           2.534   3.726  -0.002  0.00  0.00     0.021 C 
ATOM      2  H4  <0> d           3.088   3.407   0.881  0.00  0.00     0.074 H 
ATOM      3  H5  <0> d           3.071   3.417  -0.899  0.00  0.00     0.074 H 
ENDROOT
BRANCH   1   4
ATOM      4  O1  <0> d           2.402   5.149   0.007  0.00  0.00    -0.396 OA
BRANCH   4   5
ATOM      5  C1  <0> d           3.648   5.849  -0.001  0.00  0.00     0.004 C 
ATOM      6  H1  <0> d           3.462   6.923   0.006  0.00  0.00     0.066 H 
ATOM      7  H2  <0> d           4.225   5.574   0.882  0.00  0.00     0.066 H 
ATOM      8  H3  <0> d           4.208   5.583  -0.898  0.00  0.00     0.066 H 
ENDBRANCH   4   5
ENDBRANCH   1   4
BRANCH   1   9
ATOM      9  C3  <0> d           1.145   3.085   0.008  0.00  0.00    -0.026 C 
ATOM     10  H6  <0> d           0.591   3.404  -0.875  0.00  0.00     0.039 H 
ATOM     11  H7  <0> d           0.608   3.395   0.904  0.00  0.00     0.039 H 
BRANCH   9  12
ATOM     12  C4  <0> d           1.286   1.562  -0.002  0.00  0.00     0.019 C 
ATOM     13  H8  <0> d           1.840   1.243   0.881  0.00  0.00     0.074 H 
ATOM     14  H9  <0> d           1.823   1.252  -0.899  0.00  0.00     0.074 H 
BRANCH  12  15
ATOM     15  O2  <0> d          -0.011   0.963   0.007  0.00  0.00    -0.401 OA
ATOM     16  H10 <0> d           0.002  -0.004   0.002  0.00  0.00     0.209 HD
ENDBRANCH  12  15
ENDBRANCH   9  12
ENDBRANCH   1   9
TORSDOF 5
