REMARK  0 active torsions:
REMARK  status: ('A' for Active; 'I' for Inactive)
ROOT
ATOM      1  C1  <0> d          -1.503   5.742  -1.089  0.00  0.00     0.067 A 
ATOM      2  N1  <0> d          -1.183   5.098   0.046  0.00  0.00    -0.248 NA
ATOM      3  H1  <0> d          -1.849   5.661  -3.144  0.00  0.00     0.169 HD
ATOM      4  C2  <0> d          -0.925   3.754   0.044  0.00  0.00     0.047 A 
ATOM      5  C3  <0> d          -1.004   3.078  -1.115  0.00  0.00     0.035 A 
ATOM      6  C4  <0> d          -1.334   3.793  -2.299  0.00  0.00     0.254 A 
ATOM      7  O1  <0> d          -1.406   3.210  -3.369  0.00  0.00    -0.268 OA
ATOM      8  N2  <0> d          -1.581   5.112  -2.230  0.00  0.00    -0.318 N 
ATOM      9  C5  <0> d          -0.762   1.597  -1.221  0.00  0.00    -0.034 C 
ATOM     10  C6  <0> d          -0.012   1.086   0.008  0.00  0.00    -0.061 C 
ATOM     11  C7  <0> d          -0.741   1.586   1.261  0.00  0.00    -0.060 C 
ATOM     12  C8  <0> d          -0.562   3.100   1.350  0.00  0.00    -0.024 C 
ATOM     13  H2  <0> d          -1.688   6.725  -1.070  0.00  0.00     0.143 H 
ATOM     14  H3  <0> d          -0.166   1.398  -2.124  0.00  0.00     0.040 H 
ATOM     15  H4  <0> d          -1.731   1.082  -1.300  0.00  0.00     0.040 H 
ATOM     16  H5  <0> d           0.006  -0.014  -0.005  0.00  0.00     0.033 H 
ATOM     17  H6  <0> d           1.019   1.469  -0.006  0.00  0.00     0.033 H 
ATOM     18  H7  <0> d          -1.809   1.337   1.188  0.00  0.00     0.033 H 
ATOM     19  H8  <0> d          -0.312   1.103   2.152  0.00  0.00     0.033 H 
ATOM     20  H9  <0> d          -1.212   3.501   2.141  0.00  0.00     0.042 H 
ATOM     21  H10 <0> d           0.488   3.333   1.585  0.00  0.00     0.042 H 
ENDROOT
TORSDOF 0
