REMARK  3 active torsions:
REMARK  status: ('A' for Active; 'I' for Inactive)
REMARK    1  A    between atoms: C1_1  and  O1_2 
REMARK    2  A    between atoms: O1_2  and  C2_3 
REMARK    3  A    between atoms: C2_3  and  C3_5 
ROOT
ATOM      1  C3  <0> d          -0.016   1.349   0.009  0.00  0.00     0.169 A 
ATOM      2  C4  <0> d           1.285   1.759  -0.001  0.00  0.00     0.043 A 
ATOM      3  N1  <0> d           2.050   0.663  -0.014  0.00  0.00    -0.246 NA
ATOM      4  C5  <0> d           1.281  -0.393  -0.012  0.00  0.00     0.103 A 
ATOM      5  O3  <0> d           0.002  -0.004   0.002  0.00  0.00    -0.296 OA
ATOM      6  H4  <0> d           1.633   2.781   0.001  0.00  0.00     0.119 H 
ATOM      7  H5  <0> d           1.624  -1.417  -0.021  0.00  0.00     0.155 H 
ENDROOT
BRANCH   1   8
ATOM      8  C2  <0> d          -1.204   2.208   0.020  0.00  0.00     0.318 C 
ATOM      9  O2  <0> d          -1.079   3.418   0.025  0.00  0.00    -0.257 OA
BRANCH   8  10
ATOM     10  O1  <0> d          -2.435   1.657   0.024  0.00  0.00    -0.321 OA
BRANCH  10  11
ATOM     11  C1  <0> d          -3.565   2.568   0.034  0.00  0.00     0.013 C 
ATOM     12  H1  <0> d          -3.521   3.192   0.927  0.00  0.00     0.067 H 
ATOM     13  H2  <0> d          -3.530   3.201  -0.853  0.00  0.00     0.067 H 
ATOM     14  H3  <0> d          -4.493   1.996   0.036  0.00  0.00     0.067 H 
ENDBRANCH  10  11
ENDBRANCH   8  10
ENDBRANCH   1   8
TORSDOF 3
