REMARK  1 active torsions:
REMARK  status: ('A' for Active; 'I' for Inactive)
REMARK    1  A    between atoms: C9_10  and  O1_12 
ROOT
ATOM      1  C1  <0> d           1.211  -0.675  -0.014  0.00  0.00    -0.082 A 
ATOM      2  C2  <0> d           0.002  -0.004   0.002  0.00  0.00    -0.082 A 
ATOM      3  C3  <0> d          -0.017   1.376   0.010  0.00  0.00    -0.074 A 
ATOM      4  C4  <0> d           1.171   2.093   0.002  0.00  0.00    -0.020 A 
ATOM      5  C5  <0> d           2.376   1.424  -0.018  0.00  0.00    -0.021 A 
ATOM      6  C6  <0> d           2.393   0.037  -0.024  0.00  0.00    -0.075 A 
ATOM      7  C7  <0> d           3.691   2.158  -0.035  0.00  0.00     0.136 C 
ATOM      8  N1  <0> d           3.509   3.550   0.386  0.00  0.00     0.090 N 
ATOM      9  C8  <0> d           2.446   4.188  -0.407  0.00  0.00     0.139 C 
ATOM     10  C9  <0> d           1.101   3.599   0.020  0.00  0.00     0.086 C 
ATOM     11  H1  <0> d           0.808   3.953   1.019  0.00  0.00     0.093 H 
ATOM     12  H2  <0> d           1.230  -1.755  -0.018  0.00  0.00     0.083 H 
ATOM     13  H3  <0> d          -0.925  -0.558   0.009  0.00  0.00     0.083 H 
ATOM     14  H4  <0> d          -0.961   1.901   0.017  0.00  0.00     0.084 H 
ATOM     15  H5  <0> d           3.336  -0.488  -0.037  0.00  0.00     0.084 H 
ATOM     16  H6  <0> d           4.395   1.665   0.652  0.00  0.00     0.086 H 
ATOM     17  H7  <0> d           4.105   2.144  -1.055  0.00  0.00     0.086 H 
ATOM     18  H8  <0> d           3.229   3.577   1.450  0.00  0.00     0.316 HD
ATOM     19  H9  <0> d           2.454   5.273  -0.227  0.00  0.00     0.084 H 
ATOM     20  H10 <0> d           2.619   3.993  -1.476  0.00  0.00     0.084 H 
ENDROOT
BRANCH  10  21
ATOM     21  O1  <0> d           0.083   4.038  -0.881  0.00  0.00    -0.389 OA
ATOM     22  H11 <0> d          -0.116   5.112  -1.005  0.00  0.00     0.210 HD
ENDBRANCH  10  21
TORSDOF 1
