REMARK  2 active torsions:
REMARK  status: ('A' for Active; 'I' for Inactive)
REMARK    1  A    between atoms: C1_1  and  C2_2 
REMARK    2  A    between atoms: C2_2  and  C3_3 
ROOT
ATOM      1  C3  <0> d          -0.018   1.503   0.010  0.00  0.00    -0.059 A 
ATOM      2  C4  <0> d          -1.225   2.178   0.020  0.00  0.00    -0.077 A 
ATOM      3  C5  <0> d          -1.244   3.560   0.032  0.00  0.00    -0.082 A 
ATOM      4  C6  <0> d          -0.056   4.267   0.025  0.00  0.00    -0.083 A 
ATOM      5  C7  <0> d           1.151   3.592   0.010  0.00  0.00    -0.082 A 
ATOM      6  C8  <0> d           1.169   2.210   0.003  0.00  0.00    -0.077 A 
ATOM      7  H6  <0> d          -2.153   1.625   0.021  0.00  0.00     0.084 H 
ATOM      8  H7  <0> d          -2.186   4.087   0.044  0.00  0.00     0.083 H 
ATOM      9  H8  <0> d          -0.070   5.347   0.031  0.00  0.00     0.083 H 
ATOM     10  H9  <0> d           2.078   4.145   0.004  0.00  0.00     0.083 H 
ATOM     11  H10 <0> d           2.112   1.683  -0.009  0.00  0.00     0.084 H 
ENDROOT
BRANCH   1  12
ATOM     12  C2  <0> d           0.002  -0.004   0.002  0.00  0.00    -0.044 C 
ATOM     13  H4  <0> d          -0.888  -0.377  -0.505  0.00  0.00     0.039 H 
ATOM     14  H5  <0> d           0.892  -0.352  -0.522  0.00  0.00     0.039 H 
BRANCH  12  15
ATOM     15  C1  <0> d           0.023  -0.522   1.442  0.00  0.00    -0.073 C 
ATOM     16  H1  <0> d           0.037  -1.612   1.436  0.00  0.00     0.028 H 
ATOM     17  H2  <0> d           0.913  -0.149   1.949  0.00  0.00     0.028 H 
ATOM     18  H3  <0> d          -0.867  -0.173   1.966  0.00  0.00     0.028 H 
ENDBRANCH  12  15
ENDBRANCH   1  12
TORSDOF 2
