REMARK  2 active torsions:
REMARK  status: ('A' for Active; 'I' for Inactive)
REMARK    1  A    between atoms: C1_1  and  O1_2 
REMARK    2  A    between atoms: O1_2  and  C2_3 
ROOT
ATOM      1  C2  <0> d           3.317  -1.677  -0.039  0.00  0.00     0.185 A 
ATOM      2  C3  <0> d           4.082  -0.499  -0.040  0.00  0.00    -0.026 A 
ATOM      3  C4  <0> d           3.468   0.715  -0.027  0.00  0.00    -0.029 A 
ATOM      4  C5  <0> d           2.063   0.770  -0.013  0.00  0.00     0.196 A 
ATOM      5  N1  <0> d           1.180   1.759   0.000  0.00  0.00    -0.107 NA
ATOM      6  N2  <0> d          -0.015   1.286   0.009  0.00  0.00    -0.021 NA
ATOM      7  N3  <0> d           0.002  -0.004   0.002  0.00  0.00    -0.021 NA
ATOM      8  N4  <0> d           1.347  -0.396  -0.013  0.00  0.00    -0.108 N 
ATOM      9  N5  <0> d           2.005  -1.625  -0.026  0.00  0.00    -0.121 NA
ATOM     10  H4  <0> d           5.161  -0.558  -0.050  0.00  0.00     0.090 H 
ATOM     11  H5  <0> d           4.052   1.623  -0.028  0.00  0.00     0.089 H 
ENDROOT
BRANCH   1  12
ATOM     12  O1  <0> d           3.940  -2.883  -0.052  0.00  0.00    -0.338 OA
BRANCH  12  13
ATOM     13  C1  <0> d           3.107  -4.044  -0.051  0.00  0.00     0.012 C 
ATOM     14  H1  <0> d           2.486  -4.045   0.845  0.00  0.00     0.067 H 
ATOM     15  H2  <0> d           2.469  -4.034  -0.935  0.00  0.00     0.067 H 
ATOM     16  H3  <0> d           3.730  -4.938  -0.062  0.00  0.00     0.067 H 
ENDBRANCH  12  13
ENDBRANCH   1  12
TORSDOF 2
