REMARK  4 active torsions:
REMARK  status: ('A' for Active; 'I' for Inactive)
REMARK    1  A    between atoms: C1_1  and  C2_2 
REMARK    2  A    between atoms: C2_2  and  O1_3 
REMARK    3  A    between atoms: O1_3  and  C3_4 
REMARK    4  A    between atoms: C3_4  and  C4_6 
ROOT
ATOM      1  C3  <0> d          -1.204   2.208   0.020  0.00  0.00     0.318 C 
ATOM      2  O2  <0> d          -1.079   3.418   0.025  0.00  0.00    -0.257 OA
ENDROOT
BRANCH   1   3
ATOM      3  O1  <0> d          -2.435   1.657   0.024  0.00  0.00    -0.316 OA
BRANCH   3   4
ATOM      4  C2  <0> d          -3.565   2.568   0.034  0.00  0.00     0.026 C 
ATOM      5  H4  <0> d          -3.521   3.192   0.927  0.00  0.00     0.074 H 
ATOM      6  H5  <0> d          -3.530   3.201  -0.853  0.00  0.00     0.074 H 
BRANCH   4   7
ATOM      7  C1  <0> d          -4.867   1.765   0.037  0.00  0.00    -0.056 C 
ATOM      8  H1  <0> d          -4.902   1.133   0.924  0.00  0.00     0.030 H 
ATOM      9  H2  <0> d          -5.716   2.449   0.045  0.00  0.00     0.030 H 
ATOM     10  H3  <0> d          -4.912   1.142  -0.856  0.00  0.00     0.030 H 
ENDBRANCH   4   7
ENDBRANCH   3   4
ENDBRANCH   1   3
BRANCH   1  11
ATOM     11  C4  <0> d          -0.016   1.349   0.009  0.00  0.00     0.169 A 
ATOM     12  O3  <0> d           0.002  -0.004   0.002  0.00  0.00    -0.296 OA
ATOM     13  C6  <0> d           1.281  -0.393  -0.012  0.00  0.00     0.103 A 
ATOM     14  N1  <0> d           2.050   0.663  -0.014  0.00  0.00    -0.246 NA
ATOM     15  H7  <0> d           1.624  -1.417  -0.021  0.00  0.00     0.155 H 
ATOM     16  C5  <0> d           1.285   1.759  -0.001  0.00  0.00     0.043 A 
ATOM     17  H6  <0> d           1.633   2.781   0.001  0.00  0.00     0.119 H 
ENDBRANCH   1  11
TORSDOF 4
