REMARK  3 active torsions:
REMARK  status: ('A' for Active; 'I' for Inactive)
REMARK    1  A    between atoms: C1_1  and  C2_2 
REMARK    2  A    between atoms: C5_5  and  N2_11 
REMARK    3  A    between atoms: C6_6  and  C8_8 
REMARK       I    between atoms: C8_8  and  N1_10 
ROOT
ATOM      1  C2  <0> d           0.040  -2.781  -0.033  0.00  0.00    -0.061 A 
ATOM      2  C3  <0> d           1.223  -2.065  -0.125  0.00  0.00    -0.075 A 
ATOM      3  C4  <0> d           1.209  -0.686  -0.098  0.00  0.00    -0.056 A 
ATOM      4  C5  <0> d           0.004  -0.004   0.022  0.00  0.00     0.041 A 
ATOM      5  C6  <0> d          -1.195  -0.727   0.121  0.00  0.00     0.058 A 
ATOM      6  C7  <0> d          -1.165  -2.123   0.087  0.00  0.00    -0.060 A 
ATOM      7  H4  <0> d           2.162  -2.590  -0.219  0.00  0.00     0.084 H 
ATOM      8  H5  <0> d           2.135  -0.135  -0.170  0.00  0.00     0.086 H 
ATOM      9  H6  <0> d          -2.083  -2.686   0.159  0.00  0.00     0.086 H 
ENDROOT
BRANCH   5  10
ATOM     10  C8  <0> d          -2.480  -0.016   0.256  0.00  0.00     0.251 C 
ATOM     11  O1  <0> d          -2.515   1.197   0.176  0.00  0.00    -0.268 OA
ATOM     12  N1  <0> d          -3.616  -0.711   0.466  0.00  0.00    -0.366 N 
ATOM     13  H7  <0> d          -4.574  -0.181   0.566  0.00  0.00     0.159 HD
ATOM     14  H8  <0> d          -3.584  -1.808   0.537  0.00  0.00     0.159 HD
ENDBRANCH   5  10
BRANCH   4  15
ATOM     15  N2  <0> d          -0.013   1.384   0.050  0.00  0.00    -0.398 N 
ATOM     16  H9  <0> d          -0.968   1.921   0.145  0.00  0.00     0.156 HD
ATOM     17  H10 <0> d           0.929   1.947  -0.024  0.00  0.00     0.156 HD
ENDBRANCH   4  15
BRANCH   1  18
ATOM     18  C1  <0> d           0.071  -4.287  -0.063  0.00  0.00    -0.051 C 
ATOM     19  H1  <0> d           1.111  -4.631  -0.162  0.00  0.00     0.033 H 
ATOM     20  H2  <0> d          -0.518  -4.649  -0.919  0.00  0.00     0.033 H 
ATOM     21  H3  <0> d          -0.358  -4.682   0.870  0.00  0.00     0.033 H 
ENDBRANCH   1  18
TORSDOF 3
