REMARK  7 active torsions:
REMARK  status: ('A' for Active; 'I' for Inactive)
REMARK    1  A    between atoms: C1_1  and  C2_2 
REMARK    2  A    between atoms: C2_2  and  N1_3 
REMARK    3  A    between atoms: N1_3  and  C3_4 
REMARK       I    between atoms: N1_3  and  C5_6 
REMARK    4  A    between atoms: C3_4  and  C4_5 
REMARK    5  A    between atoms: C5_6  and  C6_8 
REMARK    6  A    between atoms: C7_9  and  C8_10 
REMARK    7  A    between atoms: C7_9  and  C9_11 
ROOT
ATOM      1  N1  <0> d           2.323   0.732  -0.860  0.00  0.00    -0.349 N 
ATOM      2  C5  <0> d           1.253   1.540  -0.727  0.00  0.00     0.243 C 
ATOM      3  O1  <0> d           1.335   2.714  -1.035  0.00  0.00    -0.268 OA
ENDROOT
BRANCH   1   4
ATOM      4  C2  <0> d           2.225  -0.681  -0.488  0.00  0.00    -0.005 C 
ATOM      5  H4  <0> d           3.198  -1.037  -0.149  0.00  0.00     0.063 H 
ATOM      6  H5  <0> d           1.496  -0.796   0.314  0.00  0.00     0.063 H 
BRANCH   4   7
ATOM      7  C1  <0> d           1.778  -1.498  -1.703  0.00  0.00    -0.061 C 
ATOM      8  H1  <0> d           2.507  -1.383  -2.506  0.00  0.00     0.029 H 
ATOM      9  H2  <0> d           1.705  -2.550  -1.427  0.00  0.00     0.029 H 
ATOM     10  H3  <0> d           0.805  -1.142  -2.042  0.00  0.00     0.029 H 
ENDBRANCH   4   7
ENDBRANCH   1   4
BRANCH   1  11
ATOM     11  C3  <0> d           3.586   1.267  -1.376  0.00  0.00    -0.005 C 
ATOM     12  H6  <0> d           4.125   0.481  -1.903  0.00  0.00     0.063 H 
ATOM     13  H7  <0> d           3.379   2.089  -2.062  0.00  0.00     0.063 H 
BRANCH  11  14
ATOM     14  C4  <0> d           4.437   1.778  -0.212  0.00  0.00    -0.061 C 
ATOM     15  H8  <0> d           4.644   0.957   0.474  0.00  0.00     0.029 H 
ATOM     16  H9  <0> d           5.376   2.176  -0.596  0.00  0.00     0.029 H 
ATOM     17  H10 <0> d           3.897   2.565   0.316  0.00  0.00     0.029 H 
ENDBRANCH  11  14
ENDBRANCH   1  11
BRANCH   2  18
ATOM     18  C6  <0> d          -0.014   1.003  -0.208  0.00  0.00    -0.016 C 
ATOM     19  C7  <0> d          -1.032   1.822   0.040  0.00  0.00    -0.082 C 
ATOM     20  H11 <0> d          -0.120  -0.058  -0.034  0.00  0.00     0.092 H 
BRANCH  19  21
ATOM     21  C8  <0> d          -2.378   1.259   0.416  0.00  0.00    -0.055 C 
ATOM     22  H12 <0> d          -2.325   0.171   0.432  0.00  0.00     0.033 H 
ATOM     23  H13 <0> d          -2.663   1.625   1.403  0.00  0.00     0.033 H 
ATOM     24  H14 <0> d          -3.122   1.575  -0.317  0.00  0.00     0.033 H 
ENDBRANCH  19  21
BRANCH  19  25
ATOM     25  C9  <0> d          -0.839   3.314  -0.054  0.00  0.00    -0.055 C 
ATOM     26  H15 <0> d          -0.962   3.632  -1.089  0.00  0.00     0.033 H 
ATOM     27  H16 <0> d          -1.578   3.816   0.570  0.00  0.00     0.033 H 
ATOM     28  H17 <0> d           0.163   3.573   0.289  0.00  0.00     0.033 H 
ENDBRANCH  19  25
ENDBRANCH   2  18
TORSDOF 7
