REMARK  2 active torsions:
REMARK  status: ('A' for Active; 'I' for Inactive)
REMARK    1  A    between atoms: C1_1  and  C2_2 
REMARK    2  A    between atoms: C3_5  and  C4_7 
ROOT
ATOM      1  C2  <0> d           0.002  -0.004   0.002  0.00  0.00     0.146 A 
ATOM      2  N1  <0> d           0.008  -0.787  -1.090  0.00  0.00    -0.133 NA
ATOM      3  N2  <0> d           0.029  -2.113  -0.626  0.00  0.00    -0.123 NA
ATOM      4  C3  <0> d           0.034  -2.056   0.679  0.00  0.00     0.257 A 
ATOM      5  N3  <0> d           0.023  -0.778   1.057  0.00  0.00    -0.207 NA
ENDROOT
BRANCH   1   6
ATOM      6  C1  <0> d          -0.018   1.503   0.010  0.00  0.00    -0.018 C 
ATOM      7  H1  <0> d           1.004   1.880   0.003  0.00  0.00     0.038 H 
ATOM      8  H2  <0> d          -0.545   1.864  -0.873  0.00  0.00     0.038 H 
ATOM      9  H3  <0> d          -0.529   1.854   0.907  0.00  0.00     0.038 H 
ENDBRANCH   1   6
BRANCH   4  10
ATOM     10  C4  <0> d           0.053  -3.243   1.608  0.00  0.00     0.454 C 
ATOM     11  F1  <0> d           0.407  -4.390   0.890  0.00  0.00    -0.163 F 
ATOM     12  F2  <0> d           0.987  -3.023   2.626  0.00  0.00    -0.163 F 
ATOM     13  F3  <0> d          -1.216  -3.417   2.169  0.00  0.00    -0.163 F 
ENDBRANCH   4  10
TORSDOF 2
