REMARK  3 active torsions:
REMARK  status: ('A' for Active; 'I' for Inactive)
REMARK    1  A    between atoms: C3_3  and  N1_4 
REMARK    2  A    between atoms: C5_6  and  C8_11 
REMARK    3  A    between atoms: C8_11  and  O2_12 
ROOT
ATOM      1  N1  <0> d           2.154   0.712   0.592  0.00  0.00    -0.347 N 
ATOM      2  C4  <0> d           1.489   1.878  -0.002  0.00  0.00     0.004 C 
ATOM      3  C5  <0> d          -0.019   1.542   0.011  0.00  0.00    -0.010 C 
ATOM      4  H1  <0> d          -0.495   1.921   0.915  0.00  0.00     0.046 H 
ATOM      5  C6  <0> d           0.002  -0.004   0.002  0.00  0.00     0.016 C 
ATOM      6  C7  <0> d           1.344  -0.360   0.603  0.00  0.00     0.220 C 
ATOM      7  O1  <0> d           1.645  -1.454   1.030  0.00  0.00    -0.273 OA
ATOM      8  H7  <0> d           1.833   2.027  -1.025  0.00  0.00     0.065 H 
ATOM      9  H8  <0> d           1.682   2.768   0.596  0.00  0.00     0.065 H 
ATOM     10  H9  <0> d          -0.807  -0.400   0.615  0.00  0.00     0.048 H 
ATOM     11  H10 <0> d          -0.074  -0.381  -1.018  0.00  0.00     0.048 H 
ENDROOT
BRANCH   1  12
ATOM     12  C3  <0> d           3.525   0.718   1.109  0.00  0.00     0.015 A 
ATOM     13  C1  <0> d           4.134  -0.627   1.511  0.00  0.00    -0.044 A 
ATOM     14  C2  <0> d           3.724   0.379   2.588  0.00  0.00    -0.044 A 
ATOM     15  H2  <0> d           3.514  -1.516   1.391  0.00  0.00     0.036 H 
ATOM     16  H3  <0> d           5.200  -0.770   1.334  0.00  0.00     0.036 H 
ATOM     17  H4  <0> d           4.521   0.899   3.120  0.00  0.00     0.036 H 
ATOM     18  H5  <0> d           2.835   0.152   3.176  0.00  0.00     0.036 H 
ATOM     19  H6  <0> d           4.191   1.460   0.669  0.00  0.00     0.072 H 
ENDBRANCH   1  12
BRANCH   3  20
ATOM     20  C8  <0> d          -0.712   2.087  -1.240  0.00  0.00     0.022 C 
ATOM     21  H11 <0> d          -0.612   3.172  -1.266  0.00  0.00     0.074 H 
ATOM     22  H12 <0> d          -0.248   1.658  -2.128  0.00  0.00     0.074 H 
BRANCH  20  23
ATOM     23  O2  <0> d          -2.096   1.736  -1.209  0.00  0.00    -0.400 OA
ATOM     24  H13 <0> d          -2.599   2.050  -1.973  0.00  0.00     0.209 HD
ENDBRANCH  20  23
ENDBRANCH   3  20
TORSDOF 3
