REMARK  4 active torsions:
REMARK  status: ('A' for Active; 'I' for Inactive)
REMARK    1  A    between atoms: C1_1  and  C2_2 
REMARK    2  A    between atoms: C2_2  and  C3_4 
REMARK    3  A    between atoms: C2_2  and  N1_6 
REMARK    4  A    between atoms: C6_9  and  N3_11 
ROOT
ATOM      1  N1  <0> d          -3.379   2.124   0.030  0.00  0.00    -0.264 N 
ATOM      2  C4  <0> d          -2.725   3.304   0.033  0.00  0.00     0.003 A 
ATOM      3  C5  <0> d          -1.398   3.044   0.031  0.00  0.00    -0.021 A 
ATOM      4  C6  <0> d          -1.233   1.649   0.017  0.00  0.00     0.142 A 
ATOM      5  N2  <0> d          -2.424   1.099   0.020  0.00  0.00    -0.154 NA
ATOM      6  H5  <0> d          -3.181   4.283   0.040  0.00  0.00     0.114 H 
ATOM      7  H6  <0> d          -0.606   3.778   0.037  0.00  0.00     0.091 H 
ENDROOT
BRANCH   1   8
ATOM      8  C2  <0> d          -4.833   1.945   0.036  0.00  0.00     0.114 C 
ATOM      9  H1  <0> d          -5.078   0.974   0.466  0.00  0.00     0.092 H 
BRANCH   8  10
ATOM     10  C1  <0> d          -5.362   2.015  -1.398  0.00  0.00    -0.046 C 
ATOM     11  H2  <0> d          -5.117   2.987  -1.828  0.00  0.00     0.031 H 
ATOM     12  H3  <0> d          -4.901   1.228  -1.994  0.00  0.00     0.031 H 
ATOM     13  H4  <0> d          -6.443   1.883  -1.393  0.00  0.00     0.031 H 
ENDBRANCH   8  10
BRANCH   8  14
ATOM     14  C3  <0> d          -5.469   3.034   0.860  0.00  0.00     0.198 C 
ATOM     15  O1  <0> d          -4.779   3.874   1.388  0.00  0.00    -0.646 OA
ATOM     16  O2  <0> d          -6.803   3.072   1.008  0.00  0.00    -0.646 OA
ENDBRANCH   8  14
ENDBRANCH   1   8
BRANCH   4  17
ATOM     17  N3  <0> d          -0.011   0.966   0.007  0.00  0.00    -0.383 N 
ATOM     18  H7  <0> d           0.002  -0.004   0.002  0.00  0.00     0.157 HD
ATOM     19  H8  <0> d           0.822   1.462   0.002  0.00  0.00     0.157 HD
ENDBRANCH   4  17
TORSDOF 4
