REMARK  6 active torsions:
REMARK  status: ('A' for Active; 'I' for Inactive)
REMARK    1  A    between atoms: C1_1  and  C2_2 
REMARK    2  A    between atoms: C2_2  and  C3_3 
REMARK    3  A    between atoms: C2_2  and  C4_4 
REMARK    4  A    between atoms: C4_4  and  C5_5 
REMARK    5  A    between atoms: C5_5  and  N1_6 
REMARK       I    between atoms: N1_6  and  C6_7 
REMARK    6  A    between atoms: C6_7  and  C7_9 
ROOT
ATOM      1  C7  <0> d           2.462   0.920  -0.017  0.00  0.00     0.088 C 
ATOM      2  C8  <0> d           3.568   1.892  -0.022  0.00  0.00     0.068 C 
ATOM      3  N2  <0> d           4.421   2.641  -0.026  0.00  0.00    -0.197 NA
ATOM      4  H13 <0> d           2.537   0.289   0.869  0.00  0.00     0.069 H 
ATOM      5  H14 <0> d           2.520   0.299  -0.910  0.00  0.00     0.069 H 
ENDROOT
BRANCH   1   6
ATOM      6  C6  <0> d           1.147   1.655  -0.000  0.00  0.00     0.230 C 
ATOM      7  N1  <0> d          -0.011   0.966   0.007  0.00  0.00    -0.360 N 
ATOM      8  H12 <0> d           0.002  -0.004   0.002  0.00  0.00     0.162 HD
ATOM      9  O1  <0> d           1.130   2.868   0.007  0.00  0.00    -0.273 OA
BRANCH   7  10
ATOM     10  C5  <0> d          -1.290   1.681   0.017  0.00  0.00    -0.004 C 
ATOM     11  H10 <0> d          -1.352   2.302   0.911  0.00  0.00     0.064 H 
ATOM     12  H11 <0> d          -1.360   2.312  -0.869  0.00  0.00     0.064 H 
BRANCH  10  13
ATOM     13  C4  <0> d          -2.439   0.671   0.017  0.00  0.00    -0.048 C 
ATOM     14  H8  <0> d          -2.377   0.050  -0.876  0.00  0.00     0.035 H 
ATOM     15  H9  <0> d          -2.369   0.040   0.903  0.00  0.00     0.035 H 
BRANCH  13  16
ATOM     16  C2  <0> d          -3.774   1.418   0.028  0.00  0.00    -0.060 C 
ATOM     17  H4  <0> d          -3.800   2.105   0.873  0.00  0.00     0.038 H 
BRANCH  16  18
ATOM     18  C1  <0> d          -3.928   2.206  -1.275  0.00  0.00    -0.073 C 
ATOM     19  H1  <0> d          -3.902   1.519  -2.120  0.00  0.00     0.028 H 
ATOM     20  H2  <0> d          -4.879   2.738  -1.267  0.00  0.00     0.028 H 
ATOM     21  H3  <0> d          -3.111   2.923  -1.364  0.00  0.00     0.028 H 
ENDBRANCH  16  18
BRANCH  16  22
ATOM     22  C3  <0> d          -4.920   0.412   0.153  0.00  0.00    -0.073 C 
ATOM     23  H5  <0> d          -4.811  -0.149   1.081  0.00  0.00     0.028 H 
ATOM     24  H6  <0> d          -5.872   0.944   0.161  0.00  0.00     0.028 H 
ATOM     25  H7  <0> d          -4.895  -0.275  -0.692  0.00  0.00     0.028 H 
ENDBRANCH  16  22
ENDBRANCH  13  16
ENDBRANCH  10  13
ENDBRANCH   7  10
ENDBRANCH   1   6
TORSDOF 6
