REMARK  5 active torsions:
REMARK  status: ('A' for Active; 'I' for Inactive)
REMARK    1  A    between atoms: C1_1  and  C2_2 
REMARK    2  A    between atoms: C2_2  and  C3_3 
REMARK    3  A    between atoms: C3_3  and  C4_4 
REMARK    4  A    between atoms: C4_4  and  C5_6 
REMARK    5  A    between atoms: C4_4  and  O1_8 
ROOT
ATOM      1  C3  <0> d          -0.013   1.086   0.008  0.00  0.00    -0.038 C 
ATOM      2  H7  <0> d           0.002  -0.004   0.002  0.00  0.00     0.037 H 
ATOM      3  H8  <0> d           1.010   1.463   0.000  0.00  0.00     0.037 H 
ENDROOT
BRANCH   1   4
ATOM      4  C2  <0> d          -0.753   1.593  -1.232  0.00  0.00    -0.066 C 
ATOM      5  H5  <0> d          -1.775   1.215  -1.224  0.00  0.00     0.032 H 
ATOM      6  H6  <0> d          -0.767   2.683  -1.226  0.00  0.00     0.032 H 
BRANCH   4   7
ATOM      7  C1  <0> d          -0.037   1.099  -2.490  0.00  0.00    -0.076 C 
ATOM      8  H2  <0> d          -0.564   1.460  -3.373  0.00  0.00     0.027 H 
ATOM      9  H3  <0> d           0.986   1.476  -2.498  0.00  0.00     0.027 H 
ATOM     10  H4  <0> d          -0.022   0.009  -2.496  0.00  0.00     0.027 H 
ENDBRANCH   4   7
ENDBRANCH   1   4
BRANCH   1  11
ATOM     11  C4  <0> d          -0.729   1.579   1.267  0.00  0.00     0.051 C 
ATOM     12  H1  <0> d          -1.776   1.277   1.232  0.00  0.00     0.089 H 
BRANCH  11  13
ATOM     13  C5  <0> d          -0.074   0.981   2.485  0.00  0.00    -0.085 C 
ATOM     14  C6  <0> d           0.367   1.760   3.441  0.00  0.00    -0.122 C 
ATOM     15  H10 <0> d           0.837   1.331   4.314  0.00  0.00     0.066 H 
ATOM     16  H11 <0> d           0.261   2.831   3.357  0.00  0.00     0.066 H 
ATOM     17  H9  <0> d           0.032  -0.091   2.569  0.00  0.00     0.079 H 
ENDBRANCH  11  13
BRANCH  11  18
ATOM     18  O1  <0> d          -0.647   3.004   1.334  0.00  0.00    -0.392 OA
ATOM     19  H12 <0> d           0.258   3.345   1.368  0.00  0.00     0.210 HD
ENDBRANCH  11  18
ENDBRANCH   1  11
TORSDOF 5
