REMARK  1 active torsions:
REMARK  status: ('A' for Active; 'I' for Inactive)
REMARK    1  A    between atoms: C1_1  and  C2_2 
ROOT
ATOM      1  C2  <0> d          -1.076   3.057  -1.068  0.00  0.00     0.009 C 
ATOM      2  N1  <0> d          -1.365   3.564   0.075  0.00  0.00    -0.258 NA
ATOM      3  C3  <0> d          -1.369   2.811   1.220  0.00  0.00     0.063 A 
ATOM      4  C4  <0> d          -2.018   3.273   2.365  0.00  0.00    -0.055 A 
ATOM      5  C5  <0> d          -2.017   2.501   3.512  0.00  0.00    -0.081 A 
ATOM      6  C6  <0> d          -1.382   1.271   3.525  0.00  0.00    -0.082 A 
ATOM      7  C7  <0> d          -0.736   0.809   2.392  0.00  0.00    -0.075 A 
ATOM      8  C8  <0> d          -0.723   1.574   1.246  0.00  0.00    -0.029 A 
ATOM      9  C9  <0> d          -0.013   1.086   0.008  0.00  0.00    -0.034 C 
ATOM     10  C10 <0> d          -0.757   1.595  -1.229  0.00  0.00    -0.025 C 
ATOM     11  H4  <0> d          -2.513   4.233   2.357  0.00  0.00     0.087 H 
ATOM     12  H5  <0> d          -2.516   2.858   4.401  0.00  0.00     0.083 H 
ATOM     13  H6  <0> d          -1.392   0.670   4.422  0.00  0.00     0.083 H 
ATOM     14  H7  <0> d          -0.242  -0.151   2.406  0.00  0.00     0.084 H 
ATOM     15  H8  <0> d           0.002  -0.004   0.002  0.00  0.00     0.040 H 
ATOM     16  H9  <0> d           1.009   1.465   0.000  0.00  0.00     0.040 H 
ATOM     17  H10 <0> d          -0.132   1.455  -2.111  0.00  0.00     0.042 H 
ATOM     18  H11 <0> d          -1.684   1.034  -1.349  0.00  0.00     0.042 H 
ENDROOT
BRANCH   1  19
ATOM     19  C1  <0> d          -1.057   3.949  -2.282  0.00  0.00    -0.039 C 
ATOM     20  H1  <0> d          -2.047   3.965  -2.738  0.00  0.00     0.035 H 
ATOM     21  H2  <0> d          -0.777   4.960  -1.986  0.00  0.00     0.035 H 
ATOM     22  H3  <0> d          -0.332   3.568  -3.002  0.00  0.00     0.035 H 
ENDBRANCH   1  19
TORSDOF 1
