REMARK  7 active torsions:
REMARK  status: ('A' for Active; 'I' for Inactive)
REMARK    1  A    between atoms: C1_1  and  C2_2 
REMARK    2  A    between atoms: C2_2  and  C3_4 
REMARK    3  A    between atoms: C2_2  and  O1_9 
REMARK    4  A    between atoms: C3_4  and  C4_5 
REMARK    5  A    between atoms: C4_5  and  C5_6 
REMARK    6  A    between atoms: C5_6  and  C6_7 
REMARK    7  A    between atoms: C5_6  and  C7_8 
ROOT
ATOM      1  C4  <0> d           0.849  -2.021  -1.205  0.00  0.00    -0.060 C 
ATOM      2  H7  <0> d           1.425  -2.306  -0.324  0.00  0.00     0.033 H 
ATOM      3  H8  <0> d          -0.143  -2.469  -1.152  0.00  0.00     0.033 H 
ENDROOT
BRANCH   1   4
ATOM      4  C3  <0> d           0.718  -0.497  -1.257  0.00  0.00    -0.041 C 
ATOM      5  H5  <0> d           0.143  -0.212  -2.138  0.00  0.00     0.036 H 
ATOM      6  H6  <0> d           1.710  -0.049  -1.310  0.00  0.00     0.036 H 
BRANCH   4   7
ATOM      7  C2  <0> d           0.002  -0.004   0.002  0.00  0.00     0.032 C 
ATOM      8  H1  <0> d           0.529  -0.365   0.885  0.00  0.00     0.082 H 
BRANCH   7   9
ATOM      9  C1  <0> d          -0.019   1.526   0.010  0.00  0.00    -0.052 C 
ATOM     10  H2  <0> d           1.004   1.903   0.003  0.00  0.00     0.030 H 
ATOM     11  H3  <0> d          -0.546   1.887  -0.873  0.00  0.00     0.030 H 
ATOM     12  H4  <0> d          -0.529   1.877   0.907  0.00  0.00     0.030 H 
ENDBRANCH   7   9
BRANCH   7  13
ATOM     13  O1  <0> d          -1.339  -0.499   0.012  0.00  0.00    -0.396 OA
ATOM     14  H16 <0> d          -1.853  -0.225   0.784  0.00  0.00     0.210 HD
ENDBRANCH   7  13
ENDBRANCH   4   7
ENDBRANCH   1   4
BRANCH   1  15
ATOM     15  C5  <0> d           1.565  -2.514  -2.464  0.00  0.00    -0.061 C 
ATOM     16  H9  <0> d           1.038  -2.153  -3.347  0.00  0.00     0.038 H 
BRANCH  15  17
ATOM     17  C6  <0> d           3.001  -1.985  -2.475  0.00  0.00    -0.073 C 
ATOM     18  H10 <0> d           3.511  -2.336  -3.371  0.00  0.00     0.028 H 
ATOM     19  H11 <0> d           2.986  -0.895  -2.469  0.00  0.00     0.028 H 
ATOM     20  H12 <0> d           3.528  -2.346  -1.591  0.00  0.00     0.028 H 
ENDBRANCH  15  17
BRANCH  15  21
ATOM     21  C7  <0> d           1.586  -4.044  -2.472  0.00  0.00    -0.073 C 
ATOM     22  H13 <0> d           0.564  -4.421  -2.464  0.00  0.00     0.028 H 
ATOM     23  H14 <0> d           2.096  -4.396  -3.369  0.00  0.00     0.028 H 
ATOM     24  H15 <0> d           2.113  -4.405  -1.589  0.00  0.00     0.028 H 
ENDBRANCH  15  21
ENDBRANCH   1  15
TORSDOF 7
