REMARK  2 active torsions:
REMARK  status: ('A' for Active; 'I' for Inactive)
REMARK    1  A    between atoms: C1_1  and  N1_2 
REMARK    2  A    between atoms: N1_2  and  C2_3 
ROOT
ATOM      1  C2  <0> d          -1.205   1.634   0.017  0.00  0.00     0.719 A 
ATOM      2  N2  <0> d          -2.372   0.932   0.013  0.00  0.00    -0.021 NA
ATOM      3  C3  <0> d          -3.539   1.618   0.027  0.00  0.00     0.302 A 
ATOM      4  O1  <0> d          -4.609   1.034   0.029  0.00  0.00    -0.264 OA
ATOM      5  C4  <0> d          -3.482   3.029   0.034  0.00  0.00     0.090 A 
ATOM      6  N3  <0> d          -2.314   3.627   0.032  0.00  0.00    -0.167 NA
ATOM      7  N4  <0> d          -1.218   2.955   0.024  0.00  0.00    -0.108 N 
ATOM      8  H5  <0> d          -4.391   3.611   0.042  0.00  0.00     0.126 H 
ATOM      9  H6  <0> d          -0.271   3.515   0.023  0.00  0.00     0.208 HD
ENDROOT
BRANCH   1  10
ATOM     10  N1  <0> d          -0.011   0.966   0.007  0.00  0.00    -0.227 N 
ATOM     11  H4  <0> d           0.004  -0.134   0.006  0.00  0.00     0.177 HD
BRANCH  10  12
ATOM     12  C1  <0> d           1.248   1.716  -0.001  0.00  0.00    -0.005 C 
ATOM     13  H1  <0> d           2.093   1.012  -0.007  0.00  0.00     0.057 H 
ATOM     14  H2  <0> d           1.304   2.348   0.898  0.00  0.00     0.057 H 
ATOM     15  H3  <0> d           1.291   2.350  -0.898  0.00  0.00     0.057 H 
ENDBRANCH  10  12
ENDBRANCH   1  10
TORSDOF 2
