REMARK  4 active torsions:
REMARK  status: ('A' for Active; 'I' for Inactive)
REMARK    1  A    between atoms: C4_4  and  N1_7 
REMARK    2  A    between atoms: N1_7  and  C7_8 
REMARK    3  A    between atoms: C7_8  and  C8_9 
REMARK    4  A    between atoms: C8_9  and  O1_10 
ROOT
ATOM      1  C1  <0> d          -0.054   4.159   0.024  0.00  0.00    -0.083 A 
ATOM      2  C2  <0> d           1.153   3.486   0.009  0.00  0.00    -0.081 A 
ATOM      3  C3  <0> d           1.176   2.105   0.002  0.00  0.00    -0.058 A 
ATOM      4  C4  <0> d          -0.017   1.393   0.010  0.00  0.00     0.028 A 
ATOM      5  C5  <0> d          -1.228   2.072   0.019  0.00  0.00    -0.058 A 
ATOM      6  C6  <0> d          -1.243   3.453   0.031  0.00  0.00    -0.081 A 
ATOM      7  H1  <0> d          -0.069   5.239   0.029  0.00  0.00     0.083 H 
ATOM      8  H2  <0> d           2.080   4.040   0.004  0.00  0.00     0.083 H 
ATOM      9  H3  <0> d           2.119   1.580  -0.010  0.00  0.00     0.086 H 
ATOM     10  H4  <0> d          -2.157   1.521   0.021  0.00  0.00     0.086 H 
ATOM     11  H5  <0> d          -2.185   3.982   0.042  0.00  0.00     0.083 H 
ENDROOT
BRANCH   4  12
ATOM     12  N1  <0> d           0.002  -0.004   0.002  0.00  0.00    -0.388 N 
ATOM     13  H6  <0> d           0.849  -0.478  -0.009  0.00  0.00     0.159 HD
BRANCH  12  14
ATOM     14  C7  <0> d          -1.256  -0.754   0.010  0.00  0.00     0.012 C 
ATOM     15  H7  <0> d          -1.823  -0.503   0.907  0.00  0.00     0.067 H 
ATOM     16  H8  <0> d          -1.840  -0.493  -0.873  0.00  0.00     0.067 H 
BRANCH  14  17
ATOM     17  C8  <0> d          -0.957  -2.254  -0.001  0.00  0.00     0.031 C 
ATOM     18  H9  <0> d          -1.890  -2.811  -0.085  0.00  0.00     0.076 H 
ATOM     19  H10 <0> d          -0.315  -2.490  -0.850  0.00  0.00     0.076 H 
BRANCH  17  20
ATOM     20  O1  <0> d          -0.293  -2.616   1.212  0.00  0.00    -0.399 OA
ATOM     21  H11 <0> d          -0.072  -3.555   1.274  0.00  0.00     0.209 HD
ENDBRANCH  17  20
ENDBRANCH  14  17
ENDBRANCH  12  14
ENDBRANCH   4  12
TORSDOF 4
