REMARK  4 active torsions:
REMARK  status: ('A' for Active; 'I' for Inactive)
REMARK    1  A    between atoms: C1_1  and  C2_2 
REMARK    2  A    between atoms: C2_2  and  C9_10 
REMARK    3  A    between atoms: C6_6  and  C7_8 
REMARK    4  A    between atoms: C6_6  and  C8_9 
ROOT
ATOM      1  C9  <0> d           0.205  -0.864  -1.331  0.00  0.00    -0.079 C 
ATOM      2  C10 <0> d           0.748  -1.248  -2.299  0.00  0.00    -0.151 C 
ATOM      3  H16 <0> d           1.233  -1.592  -3.164  0.00  0.00     0.166 H 
ENDROOT
BRANCH   1   4
ATOM      4  C2  <0> d          -0.475  -0.382  -0.118  0.00  0.00     0.120 C 
ATOM      5  O1  <0> d           0.387  -0.550   1.010  0.00  0.00    -0.358 OA
ATOM      6  C6  <0> d           0.793  -1.901   1.238  0.00  0.00     0.056 C 
ATOM      7  C5  <0> d          -0.441  -2.765   1.510  0.00  0.00    -0.037 C 
ATOM      8  C4  <0> d          -1.402  -2.658   0.322  0.00  0.00    -0.059 C 
ATOM      9  H8  <0> d          -0.939  -2.414   2.414  0.00  0.00     0.037 H 
ATOM     10  H9  <0> d          -0.137  -3.803   1.641  0.00  0.00     0.037 H 
ATOM     11  C3  <0> d          -1.760  -1.185   0.100  0.00  0.00    -0.026 C 
ATOM     12  H6  <0> d          -2.308  -3.225   0.533  0.00  0.00     0.033 H 
ATOM     13  H7  <0> d          -0.921  -3.055  -0.572  0.00  0.00     0.033 H 
ATOM     14  H4  <0> d          -2.285  -0.802   0.976  0.00  0.00     0.038 H 
ATOM     15  H5  <0> d          -2.400  -1.094  -0.778  0.00  0.00     0.038 H 
BRANCH   4  16
ATOM     16  C1  <0> d          -0.820   1.099  -0.280  0.00  0.00    -0.037 C 
ATOM     17  H1  <0> d           0.096   1.671  -0.434  0.00  0.00     0.033 H 
ATOM     18  H2  <0> d          -1.477   1.227  -1.140  0.00  0.00     0.033 H 
ATOM     19  H3  <0> d          -1.324   1.456   0.618  0.00  0.00     0.033 H 
ENDBRANCH   4  16
BRANCH   6  20
ATOM     20  C7  <0> d           1.731  -1.955   2.446  0.00  0.00    -0.048 C 
ATOM     21  H10 <0> d           2.040  -2.986   2.620  0.00  0.00     0.031 H 
ATOM     22  H11 <0> d           2.609  -1.340   2.252  0.00  0.00     0.031 H 
ATOM     23  H12 <0> d           1.210  -1.578   3.326  0.00  0.00     0.031 H 
ENDBRANCH   6  20
BRANCH   6  24
ATOM     24  C8  <0> d           1.523  -2.430   0.002  0.00  0.00    -0.048 C 
ATOM     25  H13 <0> d           0.794  -2.728  -0.751  0.00  0.00     0.031 H 
ATOM     26  H14 <0> d           2.165  -1.647  -0.404  0.00  0.00     0.031 H 
ATOM     27  H15 <0> d           2.131  -3.291   0.279  0.00  0.00     0.031 H 
ENDBRANCH   6  24
ENDBRANCH   1   4
TORSDOF 4
