REMARK  1 active torsions:
REMARK  status: ('A' for Active; 'I' for Inactive)
REMARK    1  A    between atoms: C1_1  and  C2_2 
ROOT
ATOM      1  C2  <0> d           1.169   1.660  -0.000  0.00  0.00     0.016 A 
ATOM      2  C3  <0> d           1.150   3.010   0.007  0.00  0.00     0.011 A 
ATOM      3  C4  <0> d          -0.095   3.682   0.022  0.00  0.00     0.293 A 
ATOM      4  O1  <0> d          -0.138   4.898   0.029  0.00  0.00    -0.260 OA
ATOM      5  O2  <0> d          -1.236   2.960   0.029  0.00  0.00    -0.223 OA
ATOM      6  C5  <0> d          -1.189   1.616   0.017  0.00  0.00     0.372 A 
ATOM      7  O3  <0> d          -2.224   0.980   0.018  0.00  0.00    -0.238 OA
ATOM      8  N1  <0> d          -0.011   0.966   0.007  0.00  0.00    -0.306 N 
ATOM      9  H1  <0> d           0.002  -0.004   0.002  0.00  0.00     0.171 HD
ATOM     10  H5  <0> d           2.074   3.571   0.001  0.00  0.00     0.096 H 
ENDROOT
BRANCH   1  11
ATOM     11  C1  <0> d           2.482   0.921  -0.016  0.00  0.00    -0.037 C 
ATOM     12  H2  <0> d           2.789   0.747  -1.047  0.00  0.00     0.035 H 
ATOM     13  H3  <0> d           3.240   1.516   0.494  0.00  0.00     0.035 H 
ATOM     14  H4  <0> d           2.367  -0.035   0.495  0.00  0.00     0.035 H 
ENDBRANCH   1  11
TORSDOF 1
