REMARK  0 active torsions:
REMARK  status: ('A' for Active; 'I' for Inactive)
ROOT
ATOM      1  C1  <0> d          -0.705   3.542  -1.315  0.00  0.00    -0.065 C 
ATOM      2  C2  <0> d           0.751   4.009  -1.370  0.00  0.00    -0.063 C 
ATOM      3  C3  <0> d           1.474   3.548  -0.103  0.00  0.00    -0.046 C 
ATOM      4  C4  <0> d           1.426   2.027  -0.001  0.00  0.00     0.015 C 
ATOM      5  H1  <0> d           1.891   1.744   0.943  0.00  0.00     0.073 H 
ATOM      6  C5  <0> d          -0.019   1.532   0.011  0.00  0.00    -0.034 C 
ATOM      7  H2  <0> d          -0.529   1.893   0.904  0.00  0.00     0.043 H 
ATOM      8  C6  <0> d          -0.742   2.015  -1.250  0.00  0.00    -0.060 C 
ATOM      9  C7  <0> d           0.002  -0.004   0.002  0.00  0.00    -0.052 C 
ATOM     10  C8  <0> d           0.545  -0.468  -1.352  0.00  0.00     0.010 C 
ATOM     11  C9  <0> d           1.808   0.274  -1.684  0.00  0.00     0.217 C 
ATOM     12  O1  <0> d           2.532  -0.181  -2.544  0.00  0.00    -0.274 OA
ATOM     13  N1  <0> d           2.176   1.408  -1.082  0.00  0.00    -0.356 N 
ATOM     14  H3  <0> d          -1.187   3.956  -0.430  0.00  0.00     0.033 H 
ATOM     15  H4  <0> d          -1.230   3.881  -2.209  0.00  0.00     0.033 H 
ATOM     16  H5  <0> d           0.783   5.097  -1.432  0.00  0.00     0.033 H 
ATOM     17  H6  <0> d           1.240   3.579  -2.245  0.00  0.00     0.033 H 
ATOM     18  H7  <0> d           0.989   3.985   0.770  0.00  0.00     0.036 H 
ATOM     19  H8  <0> d           2.513   3.876  -0.139  0.00  0.00     0.036 H 
ATOM     20  H9  <0> d          -0.251   1.602  -2.130  0.00  0.00     0.033 H 
ATOM     21  H10 <0> d          -1.779   1.678  -1.224  0.00  0.00     0.033 H 
ATOM     22  H11 <0> d           0.648  -0.367   0.801  0.00  0.00     0.034 H 
ATOM     23  H12 <0> d          -1.009  -0.386   0.143  0.00  0.00     0.034 H 
ATOM     24  H13 <0> d           0.755  -1.537  -1.310  0.00  0.00     0.047 H 
ATOM     25  H14 <0> d          -0.199  -0.276  -2.125  0.00  0.00     0.047 H 
ATOM     26  H15 <0> d           2.989   1.843  -1.383  0.00  0.00     0.162 HD
ENDROOT
TORSDOF 0
