REMARK  4 active torsions:
REMARK  status: ('A' for Active; 'I' for Inactive)
REMARK    1  A    between atoms: C1_1  and  C2_2 
REMARK    2  A    between atoms: C2_2  and  C3_3 
REMARK    3  A    between atoms: C3_3  and  N1_4 
REMARK    4  A    between atoms: C5_6  and  N4_9 
ROOT
ATOM      1  C3  <0> d           3.490   0.527  -0.029  0.00  0.00     0.018 C 
ATOM      2  H6  <0> d           3.823   0.080  -0.966  0.00  0.00     0.067 H 
ATOM      3  H7  <0> d           3.904   1.531   0.062  0.00  0.00     0.067 H 
ENDROOT
BRANCH   1   4
ATOM      4  C2  <0> d           3.972  -0.330   1.144  0.00  0.00    -0.052 C 
ATOM      5  H4  <0> d           3.639   0.116   2.081  0.00  0.00     0.035 H 
ATOM      6  H5  <0> d           3.558  -1.335   1.053  0.00  0.00     0.035 H 
BRANCH   4   7
ATOM      7  C1  <0> d           5.500  -0.404   1.128  0.00  0.00    -0.075 C 
ATOM      8  H1  <0> d           5.843  -1.015   1.964  0.00  0.00     0.027 H 
ATOM      9  H2  <0> d           5.833  -0.851   0.191  0.00  0.00     0.027 H 
ATOM     10  H3  <0> d           5.913   0.601   1.219  0.00  0.00     0.027 H 
ENDBRANCH   4   7
ENDBRANCH   1   4
BRANCH   1  11
ATOM     11  N1  <0> d           2.027   0.597  -0.014  0.00  0.00    -0.259 N 
ATOM     12  N3  <0> d           1.223  -0.408  -0.012  0.00  0.00    -0.064 NA
ATOM     13  N2  <0> d           0.002  -0.004   0.002  0.00  0.00    -0.113 NA
ATOM     14  C5  <0> d          -0.016   1.336   0.009  0.00  0.00     0.162 A 
ATOM     15  C4  <0> d           1.282   1.738  -0.001  0.00  0.00     0.045 A 
ATOM     16  H8  <0> d           1.648   2.754   0.001  0.00  0.00     0.120 H 
BRANCH  14  17
ATOM     17  N4  <0> d          -1.152   2.162   0.019  0.00  0.00    -0.381 N 
ATOM     18  H9  <0> d          -2.038   1.767   0.022  0.00  0.00     0.157 HD
ATOM     19  H10 <0> d          -1.050   3.126   0.024  0.00  0.00     0.157 HD
ENDBRANCH  14  17
ENDBRANCH   1  11
TORSDOF 4
