REMARK  2 active torsions:
REMARK  status: ('A' for Active; 'I' for Inactive)
REMARK    1  A    between atoms: C1_1  and  C2_2 
REMARK    2  A    between atoms: C2_2  and  C3_3 
ROOT
ATOM      1  C3  <0> d           0.020  -1.311  -0.005  0.00  0.00    -0.018 C 
ATOM      2  C4  <0> d           0.036  -2.059   1.302  0.00  0.00    -0.034 C 
ATOM      3  C5  <0> d          -0.651  -3.416   1.115  0.00  0.00    -0.058 C 
ATOM      4  C6  <0> d           0.055  -4.173  -0.014  0.00  0.00    -0.050 C 
ATOM      5  C7  <0> d           0.038  -3.330  -1.262  0.00  0.00    -0.102 C 
ATOM      6  C8  <0> d           0.018  -1.973  -1.192  0.00  0.00    -0.073 C 
ATOM      7  H3  <0> d           1.067  -2.213   1.620  0.00  0.00     0.041 H 
ATOM      8  H4  <0> d          -0.496  -1.482   2.058  0.00  0.00     0.041 H 
ATOM      9  H5  <0> d          -0.582  -3.990   2.039  0.00  0.00     0.033 H 
ATOM     10  H6  <0> d          -1.698  -3.262   0.854  0.00  0.00     0.033 H 
ATOM     11  H7  <0> d           1.087  -4.376   0.273  0.00  0.00     0.038 H 
ATOM     12  H8  <0> d          -0.464  -5.112  -0.202  0.00  0.00     0.038 H 
ATOM     13  H9  <0> d           0.038  -3.812  -2.229  0.00  0.00     0.076 H 
ATOM     14  H10 <0> d           0.003  -1.403  -2.109  0.00  0.00     0.084 H 
ENDROOT
BRANCH   1  15
ATOM     15  C2  <0> d           0.002  -0.004   0.002  0.00  0.00    -0.148 C 
BRANCH  15  16
ATOM     16  C1  <0> d          -0.016   1.303   0.009  0.00  0.00    -0.007 C 
ATOM     17  H1  <0> d           0.912   1.855   0.003  0.00  0.00     0.052 H 
ATOM     18  H2  <0> d          -0.958   1.830   0.017  0.00  0.00     0.052 H 
ENDBRANCH  15  16
ENDBRANCH   1  15
TORSDOF 2
