REMARK  5 active torsions:
REMARK  status: ('A' for Active; 'I' for Inactive)
REMARK    1  A    between atoms: C1_1  and  C2_2 
REMARK    2  A    between atoms: C4_4  and  C8_11 
REMARK    3  A    between atoms: C5_6  and  N3_8 
REMARK    4  A    between atoms: N3_8  and  C6_9 
REMARK    5  A    between atoms: N3_8  and  C7_10 
ROOT
ATOM      1  C2  <0> d           2.303  -0.052  -0.020  0.00  0.00     0.051 A 
ATOM      2  C3  <0> d           2.321   1.334  -0.013  0.00  0.00    -0.035 A 
ATOM      3  C4  <0> d           1.112   2.012   0.002  0.00  0.00     0.051 A 
ATOM      4  N1  <0> d          -0.016   1.321   0.009  0.00  0.00    -0.068 NA
ATOM      5  C5  <0> d           0.002  -0.004   0.002  0.00  0.00     0.724 A 
ATOM      6  N2  <0> d           1.140  -0.682  -0.013  0.00  0.00    -0.068 NA
ATOM      7  H4  <0> d           3.256   1.874  -0.019  0.00  0.00     0.089 H 
ENDROOT
BRANCH   5   8
ATOM      8  N3  <0> d          -1.197  -0.696   0.010  0.00  0.00    -0.223 N 
BRANCH   8   9
ATOM      9  C6  <0> d          -2.465   0.036   0.027  0.00  0.00    -0.003 C 
ATOM     10  H5  <0> d          -2.790   0.224  -0.997  0.00  0.00     0.057 H 
ATOM     11  H6  <0> d          -3.220  -0.555   0.545  0.00  0.00     0.057 H 
ATOM     12  H7  <0> d          -2.330   0.986   0.544  0.00  0.00     0.057 H 
ENDBRANCH   8   9
BRANCH   8  13
ATOM     13  C7  <0> d          -1.197  -2.161   0.002  0.00  0.00    -0.003 C 
ATOM     14  H8  <0> d          -1.187  -2.530   1.028  0.00  0.00     0.057 H 
ATOM     15  H9  <0> d          -2.092  -2.522  -0.505  0.00  0.00     0.057 H 
ATOM     16  H10 <0> d          -0.312  -2.522  -0.522  0.00  0.00     0.057 H 
ENDBRANCH   8  13
ENDBRANCH   5   8
BRANCH   3  17
ATOM     17  C8  <0> d           1.082   3.519   0.011  0.00  0.00    -0.035 C 
ATOM     18  H11 <0> d           1.085   3.877   1.040  0.00  0.00     0.035 H 
ATOM     19  H12 <0> d           1.960   3.902  -0.510  0.00  0.00     0.035 H 
ATOM     20  H13 <0> d           0.181   3.868  -0.493  0.00  0.00     0.035 H 
ENDBRANCH   3  17
BRANCH   1  21
ATOM     21  C1  <0> d           3.593  -0.831  -0.036  0.00  0.00    -0.035 C 
ATOM     22  H1  <0> d           3.894  -1.013  -1.068  0.00  0.00     0.035 H 
ATOM     23  H2  <0> d           4.369  -0.259   0.473  0.00  0.00     0.035 H 
ATOM     24  H3  <0> d           3.449  -1.783   0.474  0.00  0.00     0.035 H 
ENDBRANCH   1  21
TORSDOF 5
