REMARK  3 active torsions:
REMARK  status: ('A' for Active; 'I' for Inactive)
REMARK    1  A    between atoms: C1_1  and  C2_2 
REMARK    2  A    between atoms: C2_2  and  C3_3 
REMARK    3  A    between atoms: N3_9  and  N4_10 
ROOT
ATOM      1  C3  <0> d           2.081   0.736  -0.014  0.00  0.00     0.145 A 
ATOM      2  N1  <0> d           1.316   1.780  -0.001  0.00  0.00    -0.155 NA
ATOM      3  N2  <0> d          -0.016   1.345   0.009  0.00  0.00    -0.226 N 
ATOM      4  H1  <0> d          -0.805   1.909   0.016  0.00  0.00     0.194 HD
ATOM      5  C4  <0> d           0.002  -0.004   0.002  0.00  0.00     0.358 A 
ATOM      6  O1  <0> d          -0.970  -0.739   0.007  0.00  0.00    -0.243 OA
ATOM      7  N3  <0> d           1.294  -0.390  -0.012  0.00  0.00    -0.213 N 
ENDROOT
BRANCH   1   8
ATOM      8  C2  <0> d           3.588   0.753  -0.028  0.00  0.00    -0.010 C 
ATOM      9  H5  <0> d           3.965   0.239   0.856  0.00  0.00     0.044 H 
ATOM     10  H6  <0> d           3.948   0.248  -0.924  0.00  0.00     0.044 H 
BRANCH   8  11
ATOM     11  C1  <0> d           4.082   2.201  -0.025  0.00  0.00    -0.070 C 
ATOM     12  H2  <0> d           3.721   2.706   0.871  0.00  0.00     0.028 H 
ATOM     13  H3  <0> d           5.171   2.213  -0.035  0.00  0.00     0.028 H 
ATOM     14  H4  <0> d           3.704   2.715  -0.909  0.00  0.00     0.028 H 
ENDBRANCH   8  11
ENDBRANCH   1   8
BRANCH   7  15
ATOM     15  N4  <0> d           1.743  -1.679  -0.024  0.00  0.00    -0.237 NA
ATOM     16  H7  <0> d           0.973  -2.331  -0.020  0.00  0.00     0.143 HD
ATOM     17  H8  <0> d           2.352  -1.843  -0.812  0.00  0.00     0.143 HD
ENDBRANCH   7  15
TORSDOF 3
