REMARK  2 active torsions:
REMARK  status: ('A' for Active; 'I' for Inactive)
REMARK    1  A    between atoms: C1_1  and  C2_2 
REMARK    2  A    between atoms: C5_6  and  C7_8 
ROOT
ATOM      1  C2  <0> d           2.389   0.017  -0.021  0.00  0.00    -0.059 A 
ATOM      2  C3  <0> d           1.199  -0.695  -0.013  0.00  0.00    -0.060 A 
ATOM      3  C4  <0> d           0.002  -0.004   0.002  0.00  0.00     0.003 A 
ATOM      4  N1  <0> d          -0.016   1.315   0.009  0.00  0.00    -0.266 NA
ATOM      5  C5  <0> d           1.096   2.023   0.003  0.00  0.00     0.030 A 
ATOM      6  C6  <0> d           2.331   1.401  -0.013  0.00  0.00    -0.054 A 
ATOM      7  H4  <0> d           1.207  -1.775  -0.019  0.00  0.00     0.086 H 
ATOM      8  H5  <0> d          -0.929  -0.550   0.008  0.00  0.00     0.114 H 
ATOM      9  H6  <0> d           3.238   1.987  -0.018  0.00  0.00     0.087 H 
ENDROOT
BRANCH   1  10
ATOM     10  C1  <0> d           3.715  -0.699  -0.038  0.00  0.00    -0.051 C 
ATOM     11  H1  <0> d           4.025  -0.866  -1.069  0.00  0.00     0.033 H 
ATOM     12  H2  <0> d           4.463  -0.092   0.472  0.00  0.00     0.033 H 
ATOM     13  H3  <0> d           3.617  -1.658   0.472  0.00  0.00     0.033 H 
ENDBRANCH   1  10
BRANCH   5  14
ATOM     14  C7  <0> d           1.020   3.528   0.011  0.00  0.00    -0.035 C 
ATOM     15  H7  <0> d           1.012   3.886   1.040  0.00  0.00     0.035 H 
ATOM     16  H8  <0> d           1.886   3.939  -0.509  0.00  0.00     0.035 H 
ATOM     17  H9  <0> d           0.108   3.849  -0.493  0.00  0.00     0.035 H 
ENDBRANCH   5  14
TORSDOF 2
