REMARK  1 active torsions:
REMARK  status: ('A' for Active; 'I' for Inactive)
REMARK    1  A    between atoms: C3_3  and  N3_10 
ROOT
ATOM      1  C1  <0> d           1.230  -2.081  -0.020  0.00  0.00    -0.078 A 
ATOM      2  C2  <0> d           1.186  -0.685  -0.013  0.00  0.00    -0.055 A 
ATOM      3  C3  <0> d           0.002  -0.004   0.002  0.00  0.00     0.059 A 
ATOM      4  C4  <0> d          -1.242  -0.765   0.016  0.00  0.00     0.143 A 
ATOM      5  C5  <0> d          -1.157  -2.248   0.002  0.00  0.00     0.119 A 
ATOM      6  C6  <0> d           0.114  -2.850  -0.013  0.00  0.00    -0.050 A 
ATOM      7  N1  <0> d          -2.418  -2.607   0.013  0.00  0.00    -0.103 NA
ATOM      8  O1  <0> d          -3.114  -1.611   0.024  0.00  0.00    -0.106 OA
ATOM      9  N2  <0> d          -2.529  -0.546   0.023  0.00  0.00    -0.101 NA
ATOM     10  H1  <0> d           2.194  -2.568  -0.031  0.00  0.00     0.083 H 
ATOM     11  H2  <0> d           2.112  -0.130  -0.019  0.00  0.00     0.087 H 
ATOM     12  H3  <0> d           0.200  -3.927  -0.018  0.00  0.00     0.087 H 
ENDROOT
BRANCH   3  13
ATOM     13  N3  <0> d          -0.017   1.387   0.010  0.00  0.00    -0.397 N 
ATOM     14  H4  <0> d           0.817   1.883   0.004  0.00  0.00     0.156 HD
ATOM     15  H5  <0> d          -0.863   1.860   0.016  0.00  0.00     0.156 HD
ENDBRANCH   3  13
TORSDOF 1
