REMARK  1 active torsions:
REMARK  status: ('A' for Active; 'I' for Inactive)
REMARK    1  A    between atoms: C4_7  and  O1_11 
ROOT
ATOM      1  C1  <0> d           1.266  -0.432  -0.020  0.00  0.00     0.108 A 
ATOM      2  N1  <0> d           0.002  -0.004   0.002  0.00  0.00    -0.215 NA
ATOM      3  C2  <0> d          -0.016   1.308   0.009  0.00  0.00     0.186 A 
ATOM      4  N2  <0> d           1.261   1.747  -0.001  0.00  0.00    -0.243 N 
ATOM      5  N3  <0> d           2.069   0.600  -0.024  0.00  0.00    -0.163 NA
ATOM      6  C3  <0> d           1.715   3.134   0.016  0.00  0.00     0.044 C 
ATOM      7  C4  <0> d           0.609   4.081  -0.440  0.00  0.00     0.061 C 
ATOM      8  H1  <0> d           0.339   3.852  -1.471  0.00  0.00     0.086 H 
ATOM      9  C5  <0> d          -0.626   3.916   0.453  0.00  0.00     0.009 C 
ATOM     10  S1  <0> d          -1.439   2.352   0.022  0.00  0.00    -0.088 SA
ATOM     11  H2  <0> d           1.577  -1.466  -0.032  0.00  0.00     0.149 H 
ATOM     12  H3  <0> d           2.017   3.399   1.029  0.00  0.00     0.071 H 
ATOM     13  H4  <0> d           2.572   3.238  -0.650  0.00  0.00     0.071 H 
ATOM     14  H5  <0> d          -0.322   3.896   1.500  0.00  0.00     0.053 H 
ATOM     15  H6  <0> d          -1.313   4.746   0.286  0.00  0.00     0.053 H 
ENDROOT
BRANCH   7  16
ATOM     16  O1  <0> d           1.075   5.429  -0.360  0.00  0.00    -0.393 OA
ATOM     17  H7  <0> d           0.423   6.088  -0.635  0.00  0.00     0.210 HD
ENDBRANCH   7  16
TORSDOF 1
