REMARK  3 active torsions:
REMARK  status: ('A' for Active; 'I' for Inactive)
REMARK    1  A    between atoms: C1_1  and  C2_2 
REMARK    2  A    between atoms: C6_8  and  C8_10 
REMARK    3  A    between atoms: C6_8  and  C9_11 
ROOT
ATOM      1  C2  <0> d          -2.891   1.838   0.002  0.00  0.00    -0.051 C 
ATOM      2  H1  <0> d          -2.776   2.919   0.082  0.00  0.00     0.040 H 
ATOM      3  C3  <0> d          -2.243   1.349  -1.297  0.00  0.00    -0.007 C 
ATOM      4  C4  <0> d          -0.752   1.591  -1.212  0.00  0.00     0.128 C 
ATOM      5  O1  <0> d          -0.167   2.172  -2.094  0.00  0.00    -0.298 OA
ATOM      6  C5  <0> d          -0.013   1.086   0.008  0.00  0.00    -0.003 C 
ATOM      7  C6  <0> d          -0.738   1.584   1.263  0.00  0.00    -0.041 C 
ATOM      8  C7  <0> d          -2.211   1.162   1.194  0.00  0.00    -0.055 C 
ATOM      9  H5  <0> d          -2.627   1.853  -2.071  0.00  0.00     0.044 H 
ATOM     10  H6  <0> d          -2.434   0.284  -1.428  0.00  0.00     0.044 H 
ATOM     11  H7  <0> d           0.004   0.086  -0.002  0.00  0.00     0.045 H 
ATOM     12  H8  <0> d           1.009   1.466   0.000  0.00  0.00     0.045 H 
ATOM     13  H9  <0> d          -2.714   1.459   2.115  0.00  0.00     0.034 H 
ATOM     14  H10 <0> d          -2.272   0.080   1.081  0.00  0.00     0.034 H 
ENDROOT
BRANCH   7  15
ATOM     15  C8  <0> d          -0.084   0.976   2.505  0.00  0.00    -0.069 C 
ATOM     16  H11 <0> d           0.964   1.275   2.548  0.00  0.00     0.028 H 
ATOM     17  H12 <0> d          -0.599   1.330   3.398  0.00  0.00     0.028 H 
ATOM     18  H13 <0> d          -0.149  -0.111   2.455  0.00  0.00     0.028 H 
ENDBRANCH   7  15
BRANCH   7  19
ATOM     19  C9  <0> d          -0.647   3.110   1.333  0.00  0.00    -0.069 C 
ATOM     20  H14 <0> d          -1.113   3.542   0.448  0.00  0.00     0.028 H 
ATOM     21  H15 <0> d          -1.163   3.463   2.225  0.00  0.00     0.028 H 
ATOM     22  H16 <0> d           0.400   3.410   1.375  0.00  0.00     0.028 H 
ENDBRANCH   7  19
BRANCH   1  23
ATOM     23  C1  <0> d          -4.379   1.482  -0.005  0.00  0.00    -0.072 C 
ATOM     24  H2  <0> d          -4.494   0.401  -0.084  0.00  0.00     0.028 H 
ATOM     25  H3  <0> d          -4.840   1.830   0.920  0.00  0.00     0.028 H 
ATOM     26  H4  <0> d          -4.863   1.962  -0.855  0.00  0.00     0.028 H 
ENDBRANCH   1  23
TORSDOF 3
