REMARK  3 active torsions:
REMARK  status: ('A' for Active; 'I' for Inactive)
REMARK    1  A    between atoms: C1_1  and  C2_2 
REMARK    2  A    between atoms: C3_3  and  C7_9 
REMARK    3  A    between atoms: C5_6  and  C6_7 
ROOT
ATOM      1  C2  <0> d          -0.718   1.572   1.248  0.00  0.00    -0.032 A 
ATOM      2  C3  <0> d          -0.047   1.809   2.392  0.00  0.00    -0.015 A 
ATOM      3  S1  <0> d          -1.326   2.349   3.507  0.00  0.00    -0.105 SA
ATOM      4  C4  <0> d          -2.692   2.248   2.447  0.00  0.00    -0.028 A 
ATOM      5  C5  <0> d          -2.140   1.809   1.260  0.00  0.00     0.054 A 
ATOM      6  H4  <0> d          -3.725   2.478   2.662  0.00  0.00     0.096 H 
ENDROOT
BRANCH   1   7
ATOM      7  C1  <0> d          -0.013   1.086   0.008  0.00  0.00    -0.049 C 
ATOM      8  H1  <0> d           0.002  -0.004   0.002  0.00  0.00     0.033 H 
ATOM      9  H2  <0> d           1.010   1.463   0.000  0.00  0.00     0.033 H 
ATOM     10  H3  <0> d          -0.540   1.447  -0.875  0.00  0.00     0.033 H 
ENDBRANCH   1   7
BRANCH   5  11
ATOM     11  C6  <0> d          -2.966   1.588   0.065  0.00  0.00     0.210 C 
ATOM     12  O1  <0> d          -2.453   1.196  -0.965  0.00  0.00    -0.644 OA
ATOM     13  O2  <0> d          -4.294   1.819   0.110  0.00  0.00    -0.644 OA
ENDBRANCH   5  11
BRANCH   2  14
ATOM     14  C7  <0> d           1.428   1.655   2.662  0.00  0.00    -0.045 C 
ATOM     15  H5  <0> d           1.939   2.590   2.434  0.00  0.00     0.034 H 
ATOM     16  H6  <0> d           1.581   1.403   3.711  0.00  0.00     0.034 H 
ATOM     17  H7  <0> d           1.831   0.859   2.035  0.00  0.00     0.034 H 
ENDBRANCH   2  14
TORSDOF 3
