REMARK  1 active torsions:
REMARK  status: ('A' for Active; 'I' for Inactive)
REMARK    1  A    between atoms: C1_1  and  N1_2 
ROOT
ATOM      1  N1  <0> d          -0.698   1.558   1.213  0.00  0.00    -0.337 N 
ATOM      2  C2  <0> d          -0.911   2.967   1.576  0.00  0.00     0.013 A 
ATOM      3  C3  <0> d          -1.673   2.894   2.913  0.00  0.00     0.012 A 
ATOM      4  N2  <0> d          -1.800   1.451   3.167  0.00  0.00    -0.341 N 
ATOM      5  C4  <0> d          -1.226   0.775   2.163  0.00  0.00     0.318 A 
ATOM      6  O1  <0> d          -1.188  -0.439   2.118  0.00  0.00    -0.247 OA
ATOM      7  H4  <0> d           0.044   3.478   1.704  0.00  0.00     0.067 H 
ATOM      8  H5  <0> d          -1.516   3.470   0.820  0.00  0.00     0.067 H 
ATOM      9  H6  <0> d          -2.656   3.355   2.824  0.00  0.00     0.066 H 
ATOM     10  H7  <0> d          -1.096   3.372   3.705  0.00  0.00     0.066 H 
ATOM     11  H8  <0> d          -2.232   1.052   3.939  0.00  0.00     0.164 HD
ENDROOT
BRANCH   1  12
ATOM     12  C1  <0> d          -0.013   1.086   0.008  0.00  0.00    -0.014 C 
ATOM     13  H1  <0> d           0.002  -0.004   0.002  0.00  0.00     0.056 H 
ATOM     14  H2  <0> d           1.010   1.463   0.000  0.00  0.00     0.056 H 
ATOM     15  H3  <0> d          -0.540   1.447  -0.875  0.00  0.00     0.056 H 
ENDBRANCH   1  12
TORSDOF 1
