REMARK  2 active torsions:
REMARK  status: ('A' for Active; 'I' for Inactive)
REMARK    1  A    between atoms: C2_2  and  C3_3 
REMARK    2  A    between atoms: C3_3  and  C4_4 
ROOT
ATOM      1  C4  <0> d          -1.278   2.588   1.446  0.00  0.00     0.059 C 
ATOM      2  C5  <0> d          -0.006   3.518   1.453  0.00  0.00    -0.039 C 
ATOM      3  C6  <0> d           0.569   3.318   0.015  0.00  0.00    -0.036 C 
ATOM      4  H1  <0> d           1.286   4.065  -0.327  0.00  0.00     0.046 H 
ATOM      5  C7  <0> d          -0.753   3.174  -0.825  0.00  0.00    -0.051 C 
ATOM      6  C8  <0> d          -1.269   1.956   0.018  0.00  0.00    -0.017 C 
ATOM      7  H2  <0> d          -2.192   1.484  -0.319  0.00  0.00     0.048 H 
ATOM      8  C9  <0> d          -0.013   1.076   0.008  0.00  0.00    -0.101 C 
ATOM      9  C10 <0> d           1.046   1.861   0.002  0.00  0.00    -0.102 C 
ATOM     10  C11 <0> d          -1.151   1.544   2.476  0.00  0.00     0.070 C 
ATOM     11  N1  <0> d          -1.054   0.738   3.270  0.00  0.00    -0.196 NA
ATOM     12  H8  <0> d           0.721   3.205   2.203  0.00  0.00     0.036 H 
ATOM     13  H9  <0> d          -0.296   4.557   1.609  0.00  0.00     0.036 H 
ATOM     14  H10 <0> d          -1.400   4.047  -0.739  0.00  0.00     0.035 H 
ATOM     15  H11 <0> d          -0.561   2.907  -1.864  0.00  0.00     0.035 H 
ATOM     16  H12 <0> d           0.002  -0.004   0.002  0.00  0.00     0.077 H 
ATOM     17  H13 <0> d           2.075   1.534  -0.009  0.00  0.00     0.076 H 
ENDROOT
BRANCH   1  18
ATOM     18  C3  <0> d          -2.553   3.405   1.664  0.00  0.00    -0.031 C 
ATOM     19  H6  <0> d          -2.605   4.203   0.924  0.00  0.00     0.041 H 
ATOM     20  H7  <0> d          -3.422   2.756   1.560  0.00  0.00     0.041 H 
BRANCH  18  21
ATOM     21  C2  <0> d          -2.536   4.003   3.047  0.00  0.00    -0.110 C 
ATOM     22  C1  <0> d          -2.679   5.296   3.204  0.00  0.00    -0.125 C 
ATOM     23  H3  <0> d          -2.810   5.933   2.341  0.00  0.00     0.066 H 
ATOM     24  H4  <0> d          -2.667   5.725   4.195  0.00  0.00     0.066 H 
ATOM     25  H5  <0> d          -2.405   3.366   3.910  0.00  0.00     0.075 H 
ENDBRANCH  18  21
ENDBRANCH   1  18
TORSDOF 2
