REMARK  3 active torsions:
REMARK  status: ('A' for Active; 'I' for Inactive)
REMARK    1  A    between atoms: C1_1  and  N1_2 
REMARK       I    between atoms: N1_2  and  C2_3 
REMARK    2  A    between atoms: C2_3  and  C3_5 
REMARK    3  A    between atoms: C3_5  and  C4_6 
ROOT
ATOM      1  C3  <0> d          -1.135  -2.201   0.001  0.00  0.00     0.065 C 
ATOM      2  H6  <0> d          -0.625  -2.552  -0.896  0.00  0.00     0.059 H 
ATOM      3  H7  <0> d          -0.608  -2.562   0.884  0.00  0.00     0.059 H 
ENDROOT
BRANCH   1   4
ATOM      4  C2  <0> d          -1.156  -0.694   0.009  0.00  0.00     0.224 C 
ATOM      5  N1  <0> d           0.002  -0.004   0.002  0.00  0.00    -0.365 N 
ATOM      6  H5  <0> d           0.849  -0.478  -0.009  0.00  0.00     0.161 HD
ATOM      7  O1  <0> d          -2.214  -0.102   0.023  0.00  0.00    -0.273 OA
BRANCH   5   8
ATOM      8  C1  <0> d          -0.018   1.461   0.010  0.00  0.00    -0.018 C 
ATOM      9  H2  <0> d           1.005   1.838   0.002  0.00  0.00     0.056 H 
ATOM     10  H3  <0> d          -0.545   1.822  -0.873  0.00  0.00     0.056 H 
ATOM     11  H4  <0> d          -0.528   1.812   0.907  0.00  0.00     0.056 H 
ENDBRANCH   5   8
ENDBRANCH   1   4
BRANCH   1  12
ATOM     12  C4  <0> d          -2.549  -2.722   0.012  0.00  0.00     0.130 A 
ATOM     13  N4  <0> d          -3.472  -2.423   0.890  0.00  0.00    -0.225 NA
ATOM     14  C5  <0> d          -4.603  -3.062   0.592  0.00  0.00     0.107 A 
ATOM     15  N3  <0> d          -4.412  -3.785  -0.479  0.00  0.00    -0.167 NA
ATOM     16  H8  <0> d          -5.526  -2.994   1.148  0.00  0.00     0.149 H 
ATOM     17  N2  <0> d          -3.081  -3.580  -0.876  0.00  0.00    -0.263 N 
ATOM     18  H1  <0> d          -2.633  -3.979  -1.639  0.00  0.00     0.190 HD
ENDBRANCH   1  12
TORSDOF 3
