REMARK  2 active torsions:
REMARK  status: ('A' for Active; 'I' for Inactive)
REMARK    1  A    between atoms: C5_5  and  C8_8 
REMARK    2  A    between atoms: C8_8  and  O1_9 
ROOT
ATOM      1  C1  <0> d           0.002  -0.004   0.002  0.00  0.00    -0.119 C 
ATOM      2  C2  <0> d          -0.016   1.306   0.009  0.00  0.00    -0.089 C 
ATOM      3  C3  <0> d          -1.325   2.064   0.019  0.00  0.00    -0.045 C 
ATOM      4  C4  <0> d          -1.302   3.099  -1.104  0.00  0.00    -0.056 C 
ATOM      5  C5  <0> d          -0.061   3.981  -0.960  0.00  0.00    -0.033 C 
ATOM      6  C6  <0> d           1.201   3.133  -1.128  0.00  0.00    -0.056 C 
ATOM      7  C7  <0> d           1.272   2.099   0.001  0.00  0.00    -0.045 C 
ATOM      8  H1  <0> d          -0.943  -0.567   0.008  0.00  0.00     0.067 H 
ATOM      9  H2  <0> d           0.962  -0.541  -0.010  0.00  0.00     0.067 H 
ATOM     10  H3  <0> d          -2.156   1.361  -0.137  0.00  0.00     0.039 H 
ATOM     11  H4  <0> d          -1.449   2.568   0.989  0.00  0.00     0.039 H 
ATOM     12  H5  <0> d          -1.275   2.584  -2.076  0.00  0.00     0.034 H 
ATOM     13  H6  <0> d          -2.205   3.724  -1.045  0.00  0.00     0.034 H 
ATOM     14  H7  <0> d          -0.058   4.443   0.038  0.00  0.00     0.043 H 
ATOM     15  H8  <0> d           1.169   2.616  -2.098  0.00  0.00     0.034 H 
ATOM     16  H9  <0> d           2.087   3.783  -1.087  0.00  0.00     0.034 H 
ATOM     17  H10 <0> d           1.395   2.608   0.969  0.00  0.00     0.039 H 
ATOM     18  H11 <0> d           2.121   1.419  -0.166  0.00  0.00     0.039 H 
ENDROOT
BRANCH   5  19
ATOM     19  C8  <0> d          -0.086   5.072  -2.032  0.00  0.00     0.020 C 
ATOM     20  H12 <0> d           0.845   5.656  -1.983  0.00  0.00     0.074 H 
ATOM     21  H13 <0> d          -0.176   4.609  -3.026  0.00  0.00     0.074 H 
BRANCH  19  22
ATOM     22  O1  <0> d          -1.202   5.936  -1.807  0.00  0.00    -0.400 OA
ATOM     23  H14 <0> d          -1.385   6.786  -2.482  0.00  0.00     0.209 HD
ENDBRANCH  19  22
ENDBRANCH   5  19
TORSDOF 2
