REMARK  3 active torsions:
REMARK  status: ('A' for Active; 'I' for Inactive)
REMARK    1  A    between atoms: C1_1  and  C2_2 
REMARK    2  A    between atoms: C2_2  and  O1_3 
REMARK    3  A    between atoms: O1_3  and  C3_4 
ROOT
ATOM      1  C3  <0> d           0.776  -1.806  -1.336  0.00  0.00     0.166 A 
ATOM      2  C4  <0> d           1.420  -2.336  -2.453  0.00  0.00    -0.015 A 
ATOM      3  C5  <0> d           1.502  -3.710  -2.574  0.00  0.00     0.008 A 
ATOM      4  N1  <0> d           0.970  -4.474  -1.630  0.00  0.00    -0.254 NA
ATOM      5  C6  <0> d           0.369  -3.942  -0.586  0.00  0.00     0.089 A 
ATOM      6  N2  <0> d           0.273  -2.636  -0.429  0.00  0.00    -0.218 NA
ATOM      7  H6  <0> d           1.843  -1.688  -3.207  0.00  0.00     0.092 H 
ATOM      8  H7  <0> d           1.993  -4.156  -3.426  0.00  0.00     0.115 H 
ATOM      9  H8  <0> d          -0.054  -4.593   0.165  0.00  0.00     0.146 H 
ENDROOT
BRANCH   1  10
ATOM     10  O1  <0> d           0.671  -0.465  -1.174  0.00  0.00    -0.335 OA
BRANCH  10  11
ATOM     11  C2  <0> d           0.002  -0.004   0.002  0.00  0.00     0.024 C 
ATOM     12  H4  <0> d           0.529  -0.365   0.885  0.00  0.00     0.074 H 
ATOM     13  H5  <0> d          -1.020  -0.381   0.010  0.00  0.00     0.074 H 
BRANCH  11  14
ATOM     14  C1  <0> d          -0.019   1.526   0.010  0.00  0.00    -0.056 C 
ATOM     15  H1  <0> d           1.004   1.903   0.003  0.00  0.00     0.030 H 
ATOM     16  H2  <0> d          -0.546   1.887  -0.873  0.00  0.00     0.030 H 
ATOM     17  H3  <0> d          -0.529   1.877   0.907  0.00  0.00     0.030 H 
ENDBRANCH  11  14
ENDBRANCH  10  11
ENDBRANCH   1  10
TORSDOF 3
