REMARK  0 active torsions:
REMARK  status: ('A' for Active; 'I' for Inactive)
ROOT
ATOM      1  C1  <0> d           1.183   1.782   0.000  0.00  0.00    -0.081 A 
ATOM      2  C2  <0> d          -0.013   1.076   0.008  0.00  0.00    -0.081 A 
ATOM      3  C3  <0> d          -1.217   1.744   0.017  0.00  0.00    -0.052 A 
ATOM      4  C4  <0> d          -1.234   3.133   0.030  0.00  0.00     0.102 A 
ATOM      5  C5  <0> d          -0.025   3.849   0.022  0.00  0.00     0.110 A 
ATOM      6  C6  <0> d           1.187   3.147   0.007  0.00  0.00    -0.051 A 
ATOM      7  N1  <0> d          -0.330   5.168   0.032  0.00  0.00    -0.129 NA
ATOM      8  N2  <0> d          -1.605   5.332   0.044  0.00  0.00    -0.050 NA
ATOM      9  N3  <0> d          -2.237   4.079   0.044  0.00  0.00    -0.147 N 
ATOM     10  C7  <0> d          -3.572   3.845   0.055  0.00  0.00     0.208 C 
ATOM     11  N4  <0> d          -4.691   3.649   0.064  0.00  0.00    -0.170 NA
ATOM     12  H1  <0> d           2.120   1.245  -0.011  0.00  0.00     0.083 H 
ATOM     13  H2  <0> d           0.002  -0.004   0.002  0.00  0.00     0.083 H 
ATOM     14  H3  <0> d          -2.144   1.190   0.019  0.00  0.00     0.087 H 
ATOM     15  H4  <0> d           2.124   3.684   0.001  0.00  0.00     0.087 H 
ENDROOT
TORSDOF 0
