REMARK  0 active torsions:
REMARK  status: ('A' for Active; 'I' for Inactive)
ROOT
ATOM      1  C1  <0> d          -0.013   1.076   0.008  0.00  0.00    -0.064 A 
ATOM      2  C2  <0> d          -1.218   1.761   0.017  0.00  0.00    -0.057 A 
ATOM      3  C3  <0> d          -1.189   3.148   0.031  0.00  0.00     0.074 A 
ATOM      4  C4  <0> d           0.034   3.796   0.022  0.00  0.00     0.147 A 
ATOM      5  N1  <0> d           1.161   3.110   0.008  0.00  0.00    -0.247 NA
ATOM      6  C5  <0> d           1.169   1.791   0.001  0.00  0.00     0.004 A 
ATOM      7 Cl1  <0> d           0.086   5.532   0.031  0.00  0.00    -0.061 Cl
ATOM      8 Cl2  <0> d          -2.667   4.058   0.051  0.00  0.00    -0.081 Cl
ATOM      9  H1  <0> d           0.002  -0.004   0.002  0.00  0.00     0.085 H 
ATOM     10  H2  <0> d          -2.157   1.228   0.018  0.00  0.00     0.086 H 
ATOM     11  H3  <0> d           2.112   1.264  -0.012  0.00  0.00     0.114 H 
ENDROOT
TORSDOF 0
