REMARK  4 active torsions:
REMARK  status: ('A' for Active; 'I' for Inactive)
REMARK    1  A    between atoms: C2_2  and  C5_10 
REMARK    2  A    between atoms: C4_7  and  N3_9 
REMARK    3  A    between atoms: C5_10  and  C6_11 
REMARK    4  A    between atoms: C6_11  and  O2_12 
ROOT
ATOM      1  C1  <0> d          -0.080  -0.705   1.170  0.00  0.00     0.032 A 
ATOM      2  C2  <0> d           0.002  -0.004   0.002  0.00  0.00     0.030 A 
ATOM      3  C3  <0> d           0.100  -0.711  -1.210  0.00  0.00     0.267 A 
ATOM      4  O1  <0> d           0.170  -0.116  -2.273  0.00  0.00    -0.267 OA
ATOM      5  N1  <0> d           0.120  -2.061  -1.174  0.00  0.00    -0.154 N 
ATOM      6  H1  <0> d           0.205  -2.634  -2.108  0.00  0.00     0.187 HD
ATOM      7  C4  <0> d           0.036  -2.706   0.021  0.00  0.00     0.700 A 
ATOM      8  N2  <0> d          -0.061  -2.036   1.152  0.00  0.00    -0.077 NA
ATOM      9  H2  <0> d          -0.160  -0.180   2.110  0.00  0.00     0.116 H 
ENDROOT
BRANCH   2  10
ATOM     10  C5  <0> d          -0.018   1.503   0.010  0.00  0.00    -0.015 C 
ATOM     11  H5  <0> d          -0.550   1.867  -0.881  0.00  0.00     0.043 H 
ATOM     12  H6  <0> d          -0.533   1.857   0.915  0.00  0.00     0.043 H 
BRANCH  10  13
ATOM     13  C6  <0> d           1.417   2.032  -0.001  0.00  0.00     0.021 C 
ATOM     14  H7  <0> d           1.949   1.668   0.890  0.00  0.00     0.074 H 
ATOM     15  H8  <0> d           1.932   1.678  -0.906  0.00  0.00     0.074 H 
BRANCH  13  16
ATOM     16  O2  <0> d           1.398   3.461   0.007  0.00  0.00    -0.401 OA
ATOM     17  H9  <0> d           2.343   4.024   0.001  0.00  0.00     0.209 HD
ENDBRANCH  13  16
ENDBRANCH  10  13
ENDBRANCH   2  10
BRANCH   7  18
ATOM     18  N3  <0> d           0.052  -4.074   0.049  0.00  0.00    -0.233 N 
ATOM     19  H3  <0> d          -0.015  -4.606   1.009  0.00  0.00     0.174 HD
ATOM     20  H4  <0> d           0.132  -4.643  -0.890  0.00  0.00     0.174 HD
ENDBRANCH   7  18
TORSDOF 4
