REMARK  2 active torsions:
REMARK  status: ('A' for Active; 'I' for Inactive)
REMARK    1  A    between atoms: C1_1  and  C2_2 
REMARK       I    between atoms: C2_2  and  N1_4 
REMARK    2  A    between atoms: N1_4  and  C3_5 
ROOT
ATOM      1  C3  <0> d           1.199  -0.737  -0.104  0.00  0.00     0.041 A 
ATOM      2  C4  <0> d           1.173  -2.119  -0.202  0.00  0.00    -0.050 A 
ATOM      3  C5  <0> d           2.345  -2.792  -0.307  0.00  0.00    -0.043 A 
ATOM      4  S1  <0> d           3.541  -1.467  -0.258  0.00  0.00    -0.111 SA
ATOM      5  C6  <0> d           2.401  -0.101  -0.107  0.00  0.00    -0.019 A 
ATOM      6  H5  <0> d           0.234  -2.652  -0.198  0.00  0.00     0.087 H 
ATOM      7  H6  <0> d           2.513  -3.855  -0.394  0.00  0.00     0.095 H 
ATOM      8  H7  <0> d           2.612   0.955  -0.036  0.00  0.00     0.098 H 
ENDROOT
BRANCH   1   9
ATOM      9  N1  <0> d           0.002  -0.004   0.002  0.00  0.00    -0.327 N 
ATOM     10  C2  <0> d          -0.091   1.219  -0.556  0.00  0.00     0.218 C 
ATOM     11  O1  <0> d           0.880   1.722  -1.081  0.00  0.00    -0.274 OA
ATOM     12  H4  <0> d          -0.756  -0.379   0.477  0.00  0.00     0.169 HD
BRANCH  10  13
ATOM     13  C1  <0> d          -1.404   1.959  -0.534  0.00  0.00    -0.003 C 
ATOM     14  H1  <0> d          -1.463   2.567   0.368  0.00  0.00     0.040 H 
ATOM     15  H2  <0> d          -1.472   2.603  -1.411  0.00  0.00     0.040 H 
ATOM     16  H3  <0> d          -2.225   1.243  -0.545  0.00  0.00     0.040 H 
ENDBRANCH  10  13
ENDBRANCH   1   9
TORSDOF 2
