REMARK  5 active torsions:
REMARK  status: ('A' for Active; 'I' for Inactive)
REMARK    1  A    between atoms: C1_1  and  C2_2 
REMARK    2  A    between atoms: C2_2  and  C5_8 
REMARK    3  A    between atoms: C5_8  and  C6_9 
REMARK    4  A    between atoms: C5_8  and  C7_10 
REMARK    5  A    between atoms: C5_8  and  C8_11 
ROOT
ATOM      1  C2  <0> d           0.011   1.072   2.506  0.00  0.00     0.091 A 
ATOM      2  C3  <0> d           0.005  -0.468   2.547  0.00  0.00     0.027 A 
ATOM      3  N1  <0> d          -0.715  -0.782   3.791  0.00  0.00    -0.334 N 
ATOM      4  C4  <0> d          -1.073   0.363   4.386  0.00  0.00     0.361 A 
ATOM      5  O1  <0> d          -1.683   0.403   5.436  0.00  0.00    -0.238 OA
ATOM      6  O2  <0> d          -0.696   1.463   3.719  0.00  0.00    -0.291 OA
ATOM      7  H4  <0> d          -0.526  -0.872   1.685  0.00  0.00     0.068 H 
ATOM      8  H5  <0> d           1.023  -0.854   2.583  0.00  0.00     0.068 H 
ATOM      9  H6  <0> d          -0.899  -1.674   4.126  0.00  0.00     0.164 HD
ENDROOT
BRANCH   1  10
ATOM     10  C1  <0> d           1.446   1.603   2.527  0.00  0.00    -0.045 C 
ATOM     11  H1  <0> d           1.430   2.693   2.545  0.00  0.00     0.031 H 
ATOM     12  H2  <0> d           1.958   1.233   3.416  0.00  0.00     0.031 H 
ATOM     13  H3  <0> d           1.973   1.262   1.636  0.00  0.00     0.031 H 
ENDBRANCH   1  10
BRANCH   1  14
ATOM     14  C5  <0> d          -0.729   1.579   1.267  0.00  0.00    -0.018 C 
BRANCH  14  15
ATOM     15  C6  <0> d          -0.013   1.086   0.008  0.00  0.00    -0.067 C 
ATOM     16  H7  <0> d           0.002  -0.004   0.002  0.00  0.00     0.028 H 
ATOM     17  H8  <0> d           1.010   1.463   0.000  0.00  0.00     0.028 H 
ATOM     18  H9  <0> d          -0.540   1.447  -0.875  0.00  0.00     0.028 H 
ENDBRANCH  14  15
BRANCH  14  19
ATOM     19  C7  <0> d          -0.750   3.109   1.275  0.00  0.00    -0.067 C 
ATOM     20  H10 <0> d          -1.277   3.470   0.392  0.00  0.00     0.028 H 
ATOM     21  H11 <0> d          -1.260   3.461   2.172  0.00  0.00     0.028 H 
ATOM     22  H12 <0> d           0.273   3.486   1.268  0.00  0.00     0.028 H 
ENDBRANCH  14  19
BRANCH  14  23
ATOM     23  C8  <0> d          -2.164   1.050   1.278  0.00  0.00    -0.067 C 
ATOM     24  H13 <0> d          -2.149  -0.040   1.272  0.00  0.00     0.028 H 
ATOM     25  H14 <0> d          -2.674   1.401   2.175  0.00  0.00     0.028 H 
ATOM     26  H15 <0> d          -2.691   1.411   0.395  0.00  0.00     0.028 H 
ENDBRANCH  14  23
ENDBRANCH   1  14
TORSDOF 5
