REMARK  3 active torsions:
REMARK  status: ('A' for Active; 'I' for Inactive)
REMARK    1  A    between atoms: C1_1  and  O1_2 
REMARK    2  A    between atoms: O1_2  and  C2_3 
REMARK    3  A    between atoms: C6_8  and  C8_11 
ROOT
ATOM      1  C2  <0> d          -2.904   1.556   0.038  0.00  0.00     0.038 C 
ATOM      2  H1  <0> d          -3.927   1.179   0.046  0.00  0.00     0.083 H 
ATOM      3  C3  <0> d          -2.188   1.063  -1.221  0.00  0.00    -0.041 C 
ATOM      4  C4  <0> d          -0.753   1.593  -1.232  0.00  0.00    -0.062 C 
ATOM      5  C5  <0> d          -0.013   1.086   0.008  0.00  0.00    -0.052 C 
ATOM      6  C6  <0> d          -0.729   1.579   1.267  0.00  0.00     0.033 C 
ATOM      7  H2  <0> d          -0.744   2.669   1.273  0.00  0.00     0.056 H 
ATOM      8  C7  <0> d          -2.164   1.050   1.278  0.00  0.00    -0.028 C 
ATOM      9  H6  <0> d          -2.715   1.424  -2.104  0.00  0.00     0.036 H 
ATOM     10  H7  <0> d          -2.173  -0.027  -1.227  0.00  0.00     0.036 H 
ATOM     11  H8  <0> d          -0.767   2.683  -1.226  0.00  0.00     0.033 H 
ATOM     12  H9  <0> d          -0.242   1.241  -2.128  0.00  0.00     0.033 H 
ATOM     13  H10 <0> d           0.002  -0.004   0.002  0.00  0.00     0.034 H 
ATOM     14  H11 <0> d           1.010   1.463   0.000  0.00  0.00     0.034 H 
ATOM     15  H12 <0> d          -2.674   1.401   2.175  0.00  0.00     0.038 H 
ATOM     16  H13 <0> d          -2.149  -0.040   1.272  0.00  0.00     0.038 H 
ENDROOT
BRANCH   1  17
ATOM     17  O1  <0> d          -2.924   2.985   0.046  0.00  0.00    -0.391 OA
BRANCH  17  18
ATOM     18  C1  <0> d          -4.068   3.555  -0.593  0.00  0.00     0.004 C 
ATOM     19  H3  <0> d          -4.008   4.642  -0.544  0.00  0.00     0.066 H 
ATOM     20  H4  <0> d          -4.097   3.238  -1.635  0.00  0.00     0.066 H 
ATOM     21  H5  <0> d          -4.972   3.218  -0.086  0.00  0.00     0.066 H 
ENDBRANCH  17  18
ENDBRANCH   1  17
BRANCH   6  22
ATOM     22  C8  <0> d           0.000   1.080   2.488  0.00  0.00     0.177 C 
ATOM     23  O2  <0> d          -0.570   0.373   3.285  0.00  0.00    -0.648 OA
ATOM     24  O3  <0> d           1.283   1.421   2.690  0.00  0.00    -0.648 OA
ENDBRANCH   6  22
TORSDOF 3
