REMARK  0 active torsions:
REMARK  status: ('A' for Active; 'I' for Inactive)
ROOT
ATOM      1  C1  <0> d          -0.016   1.312   0.009  0.00  0.00     0.057 A 
ATOM      2  C2  <0> d           1.181   2.033   0.002  0.00  0.00     0.219 A 
ATOM      3  O1  <0> d           1.153   3.388   0.010  0.00  0.00    -0.169 OA
ATOM      4  N1  <0> d           2.341   1.397  -0.013  0.00  0.00    -0.207 NA
ATOM      5  C3  <0> d           2.369   0.067  -0.020  0.00  0.00     0.178 A 
ATOM      6  C4  <0> d           1.163  -0.655  -0.013  0.00  0.00     0.176 A 
ATOM      7  N2  <0> d           0.002  -0.004   0.002  0.00  0.00    -0.242 NA
ATOM      8  C5  <0> d           1.184  -2.087  -0.020  0.00  0.00     0.123 C 
ATOM      9  N3  <0> d           1.200  -3.223  -0.026  0.00  0.00    -0.190 NA
ATOM     10  C6  <0> d           3.623  -0.625  -0.036  0.00  0.00     0.123 C 
ATOM     11  N4  <0> d           4.617  -1.175  -0.049  0.00  0.00    -0.190 NA
ATOM     12  H1  <0> d          -0.960   1.837   0.026  0.00  0.00     0.121 H 
ENDROOT
TORSDOF 0
