REMARK  8 active torsions:
REMARK  status: ('A' for Active; 'I' for Inactive)
REMARK    1  A    between atoms: C1_1  and  C2_2 
REMARK    2  A    between atoms: C2_2  and  C3_3 
REMARK    3  A    between atoms: C3_3  and  C4_4 
REMARK    4  A    between atoms: C4_4  and  C5_6 
REMARK    5  A    between atoms: C4_4  and  C8_10 
REMARK    6  A    between atoms: C5_6  and  C6_7 
REMARK    7  A    between atoms: C6_7  and  C7_8 
REMARK    8  A    between atoms: C7_8  and  O1_9 
ROOT
ATOM      1  C4  <0> d           2.833   4.014  -0.003  0.00  0.00     0.030 C 
ATOM      2  H1  <0> d           3.369   3.591  -0.853  0.00  0.00     0.056 H 
ENDROOT
BRANCH   1   3
ATOM      3  C3  <0> d           2.813   5.539  -0.121  0.00  0.00    -0.053 C 
ATOM      4  H7  <0> d           2.236   5.828  -0.999  0.00  0.00     0.034 H 
ATOM      5  H8  <0> d           2.354   5.966   0.771  0.00  0.00     0.034 H 
BRANCH   3   6
ATOM      6  C2  <0> d           4.245   6.059  -0.257  0.00  0.00    -0.068 C 
ATOM      7  H5  <0> d           4.822   5.770   0.622  0.00  0.00     0.032 H 
ATOM      8  H6  <0> d           4.703   5.632  -1.149  0.00  0.00     0.032 H 
BRANCH   6   9
ATOM      9  C1  <0> d           4.225   7.584  -0.374  0.00  0.00    -0.076 C 
ATOM     10  H2  <0> d           3.767   8.011   0.518  0.00  0.00     0.027 H 
ATOM     11  H3  <0> d           5.246   7.955  -0.471  0.00  0.00     0.027 H 
ATOM     12  H4  <0> d           3.648   7.874  -1.253  0.00  0.00     0.027 H 
ENDBRANCH   6   9
ENDBRANCH   3   6
ENDBRANCH   1   3
BRANCH   1  13
ATOM     13  C5  <0> d           1.397   3.484   0.007  0.00  0.00    -0.051 C 
ATOM     14  H9  <0> d           0.870   3.845  -0.876  0.00  0.00     0.034 H 
ATOM     15  H10 <0> d           0.887   3.836   0.904  0.00  0.00     0.034 H 
BRANCH  13  16
ATOM     16  C6  <0> d           1.418   1.954  -0.001  0.00  0.00    -0.045 C 
ATOM     17  H11 <0> d           1.945   1.593   0.882  0.00  0.00     0.036 H 
ATOM     18  H12 <0> d           1.928   1.603  -0.898  0.00  0.00     0.036 H 
BRANCH  16  19
ATOM     19  C7  <0> d          -0.017   1.425   0.010  0.00  0.00     0.017 C 
ATOM     20  H13 <0> d          -0.544   1.786  -0.873  0.00  0.00     0.073 H 
ATOM     21  H14 <0> d          -0.527   1.776   0.907  0.00  0.00     0.073 H 
BRANCH  19  22
ATOM     22  O1  <0> d           0.002  -0.004   0.002  0.00  0.00    -0.401 OA
ATOM     23  H15 <0> d          -0.876  -0.409   0.008  0.00  0.00     0.209 HD
ENDBRANCH  19  22
ENDBRANCH  16  19
ENDBRANCH  13  16
ENDBRANCH   1  13
BRANCH   1  24
ATOM     24  C8  <0> d           3.524   3.617   1.276  0.00  0.00     0.177 C 
ATOM     25  O2  <0> d           2.930   2.977   2.110  0.00  0.00    -0.648 OA
ATOM     26  O3  <0> d           4.800   3.976   1.488  0.00  0.00    -0.648 OA
ENDBRANCH   1  24
TORSDOF 8
