REMARK  4 active torsions:
REMARK  status: ('A' for Active; 'I' for Inactive)
REMARK    1  A    between atoms: C1_1  and  C2_2 
REMARK    2  A    between atoms: C5_8  and  C6_10 
REMARK    3  A    between atoms: C6_10  and  C7_11 
REMARK    4  A    between atoms: C6_10  and  C8_12 
ROOT
ATOM      1  C2  <0> d           0.002  -0.004   0.002  0.00  0.00     0.103 A 
ATOM      2  N1  <0> d           0.005  -0.656  -1.177  0.00  0.00    -0.312 N 
ATOM      3  H1  <0> d          -0.005  -0.156  -2.009  0.00  0.00     0.170 HD
ATOM      4  C3  <0> d           0.024  -2.006  -1.200  0.00  0.00     0.248 A 
ATOM      5  O1  <0> d           0.027  -2.611  -2.260  0.00  0.00    -0.268 OA
ATOM      6  C4  <0> d           0.039  -2.702   0.026  0.00  0.00     0.007 A 
ATOM      7  C5  <0> d           0.035  -1.983   1.183  0.00  0.00     0.045 A 
ATOM      8  N2  <0> d           0.022  -0.648   1.138  0.00  0.00    -0.240 NA
ATOM      9  H5  <0> d           0.053  -3.781   0.048  0.00  0.00     0.095 H 
ENDROOT
BRANCH   7  10
ATOM     10  C6  <0> d           0.051  -2.693   2.513  0.00  0.00    -0.018 C 
ATOM     11  H6  <0> d           0.064  -3.770   2.349  0.00  0.00     0.048 H 
BRANCH  10  12
ATOM     12  C7  <0> d           1.298  -2.280   3.296  0.00  0.00    -0.068 C 
ATOM     13  H7  <0> d           2.189  -2.550   2.729  0.00  0.00     0.028 H 
ATOM     14  H8  <0> d           1.284  -1.202   3.460  0.00  0.00     0.028 H 
ATOM     15  H9  <0> d           1.310  -2.793   4.258  0.00  0.00     0.028 H 
ENDBRANCH  10  12
BRANCH  10  16
ATOM     16  C8  <0> d          -1.200  -2.314   3.308  0.00  0.00    -0.068 C 
ATOM     17  H10 <0> d          -2.089  -2.608   2.750  0.00  0.00     0.028 H 
ATOM     18  H11 <0> d          -1.189  -2.827   4.270  0.00  0.00     0.028 H 
ATOM     19  H12 <0> d          -1.214  -1.236   3.472  0.00  0.00     0.028 H 
ENDBRANCH  10  16
ENDBRANCH   7  10
BRANCH   1  20
ATOM     20  C1  <0> d          -0.018   1.503   0.010  0.00  0.00    -0.021 C 
ATOM     21  H2  <0> d           1.004   1.880   0.003  0.00  0.00     0.037 H 
ATOM     22  H3  <0> d          -0.545   1.864  -0.873  0.00  0.00     0.037 H 
ATOM     23  H4  <0> d          -0.529   1.854   0.907  0.00  0.00     0.037 H 
ENDBRANCH   1  20
TORSDOF 4
