REMARK  3 active torsions:
REMARK  status: ('A' for Active; 'I' for Inactive)
REMARK    1  A    between atoms: C1_1  and  C2_2 
REMARK    2  A    between atoms: C2_2  and  N1_3 
REMARK    3  A    between atoms: C4_5  and  N4_8 
ROOT
ATOM      1  N1  <0> d           2.027   0.597  -0.014  0.00  0.00    -0.259 N 
ATOM      2  C3  <0> d           1.282   1.738  -0.001  0.00  0.00     0.045 A 
ATOM      3  C4  <0> d          -0.016   1.336   0.009  0.00  0.00     0.162 A 
ATOM      4  N2  <0> d           0.002  -0.004   0.002  0.00  0.00    -0.113 NA
ATOM      5  N3  <0> d           1.223  -0.408  -0.012  0.00  0.00    -0.064 NA
ATOM      6  H6  <0> d           1.648   2.754   0.001  0.00  0.00     0.120 H 
ENDROOT
BRANCH   1   7
ATOM      7  C2  <0> d           3.490   0.527  -0.029  0.00  0.00     0.015 C 
ATOM      8  H4  <0> d           3.823   0.080  -0.966  0.00  0.00     0.066 H 
ATOM      9  H5  <0> d           3.904   1.531   0.062  0.00  0.00     0.066 H 
BRANCH   7  10
ATOM     10  C1  <0> d           3.972  -0.330   1.144  0.00  0.00    -0.059 C 
ATOM     11  H1  <0> d           5.060  -0.383   1.133  0.00  0.00     0.029 H 
ATOM     12  H2  <0> d           3.639   0.116   2.081  0.00  0.00     0.029 H 
ATOM     13  H3  <0> d           3.558  -1.335   1.053  0.00  0.00     0.029 H 
ENDBRANCH   7  10
ENDBRANCH   1   7
BRANCH   3  14
ATOM     14  N4  <0> d          -1.152   2.162   0.019  0.00  0.00    -0.381 N 
ATOM     15  H7  <0> d          -2.038   1.767   0.022  0.00  0.00     0.157 HD
ATOM     16  H8  <0> d          -1.050   3.126   0.024  0.00  0.00     0.157 HD
ENDBRANCH   3  14
TORSDOF 3
