REMARK  3 active torsions:
REMARK  status: ('A' for Active; 'I' for Inactive)
REMARK    1  A    between atoms: C1_1  and  C2_2 
REMARK    2  A    between atoms: C2_2  and  C3_4 
REMARK    3  A    between atoms: C3_4  and  C6_7 
ROOT
ATOM      1  C3  <0> d          -0.019   1.526   0.010  0.00  0.00     0.016 A 
ATOM      2  C4  <0> d           1.317   0.779  -0.006  0.00  0.00    -0.051 A 
ATOM      3  C5  <0> d           0.002  -0.004   0.002  0.00  0.00    -0.051 A 
ATOM      4  H4  <0> d           1.889   0.792  -0.934  0.00  0.00     0.034 H 
ATOM      5  H5  <0> d           1.906   0.782   0.910  0.00  0.00     0.034 H 
ATOM      6  H6  <0> d          -0.273  -0.516   0.924  0.00  0.00     0.034 H 
ATOM      7  H7  <0> d          -0.290  -0.506  -0.920  0.00  0.00     0.034 H 
ENDROOT
BRANCH   1   8
ATOM      8  C2  <0> d          -0.418   2.209   1.293  0.00  0.00     0.131 C 
ATOM      9  O1  <0> d          -0.706   1.551   2.264  0.00  0.00    -0.298 OA
BRANCH   8  10
ATOM     10  C1  <0> d          -0.457   3.714   1.364  0.00  0.00    -0.020 C 
ATOM     11  H1  <0> d          -1.368   4.036   1.105  0.00  0.00     0.037 H 
ATOM     12  H2  <0> d          -0.234   4.036   2.381  0.00  0.00     0.037 H 
ATOM     13  H3  <0> d           0.283   4.130   0.681  0.00  0.00     0.037 H 
ENDBRANCH   8  10
ENDBRANCH   1   8
BRANCH   1  14
ATOM     14  C6  <0> d          -0.448   2.233  -1.276  0.00  0.00    -0.062 C 
ATOM     15  H8  <0> d          -1.464   1.933  -1.534  0.00  0.00     0.029 H 
ATOM     16  H9  <0> d          -0.416   3.313  -1.125  0.00  0.00     0.029 H 
ATOM     17  H10 <0> d           0.228   1.959  -2.085  0.00  0.00     0.029 H 
ENDBRANCH   1  14
TORSDOF 3
