REMARK  5 active torsions:
REMARK  status: ('A' for Active; 'I' for Inactive)
REMARK    1  A    between atoms: C1_1  and  C2_2 
REMARK    2  A    between atoms: C2_2  and  N1_3 
REMARK    3  A    between atoms: N1_3  and  C3_4 
REMARK    4  A    between atoms: C6_7  and  O1_10 
REMARK    5  A    between atoms: O1_10  and  C9_11 
ROOT
ATOM      1  C3  <0> d          -1.232   1.649   0.017  0.00  0.00     0.028 A 
ATOM      2  C4  <0> d          -1.252   3.037   0.030  0.00  0.00    -0.055 A 
ATOM      3  C5  <0> d          -2.457   3.711   0.034  0.00  0.00    -0.049 A 
ATOM      4  C6  <0> d          -3.649   3.001   0.036  0.00  0.00     0.068 A 
ATOM      5  C7  <0> d          -3.631   1.614   0.028  0.00  0.00    -0.049 A 
ATOM      6  C8  <0> d          -2.426   0.939   0.019  0.00  0.00    -0.055 A 
ATOM      7  H7  <0> d          -0.324   3.591   0.034  0.00  0.00     0.087 H 
ATOM      8  H8  <0> d          -2.473   4.791   0.040  0.00  0.00     0.087 H 
ATOM      9  H9  <0> d          -4.559   1.062   0.029  0.00  0.00     0.087 H 
ATOM     10  H10 <0> d          -2.412  -0.141   0.012  0.00  0.00     0.087 H 
ENDROOT
BRANCH   1  11
ATOM     11  N1  <0> d          -0.011   0.966   0.007  0.00  0.00    -0.390 N 
ATOM     12  H6  <0> d           0.002  -0.004   0.002  0.00  0.00     0.159 HD
BRANCH  11  13
ATOM     13  C2  <0> d           1.248   1.716  -0.001  0.00  0.00    -0.011 C 
ATOM     14  H4  <0> d           1.288   2.348  -0.888  0.00  0.00     0.063 H 
ATOM     15  H5  <0> d           1.305   2.338   0.892  0.00  0.00     0.063 H 
BRANCH  13  16
ATOM     16  C1  <0> d           2.424   0.737  -0.017  0.00  0.00    -0.061 C 
ATOM     17  H1  <0> d           3.360   1.295  -0.023  0.00  0.00     0.029 H 
ATOM     18  H2  <0> d           2.383   0.105   0.870  0.00  0.00     0.029 H 
ATOM     19  H3  <0> d           2.366   0.115  -0.910  0.00  0.00     0.029 H 
ENDBRANCH  13  16
ENDBRANCH  11  13
ENDBRANCH   1  11
BRANCH   4  20
ATOM     20  O1  <0> d          -4.836   3.665   0.046  0.00  0.00    -0.356 OA
BRANCH  20  21
ATOM     21  C9  <0> d          -4.780   5.093   0.054  0.00  0.00     0.010 C 
ATOM     22  H11 <0> d          -5.793   5.495   0.061  0.00  0.00     0.066 H 
ATOM     23  H12 <0> d          -4.248   5.431   0.943  0.00  0.00     0.066 H 
ATOM     24  H13 <0> d          -4.257   5.441  -0.837  0.00  0.00     0.066 H 
ENDBRANCH  20  21
ENDBRANCH   4  20
TORSDOF 5
