REMARK  4 active torsions:
REMARK  status: ('A' for Active; 'I' for Inactive)
REMARK    1  A    between atoms: C1_1  and  C2_2 
REMARK    2  A    between atoms: C2_2  and  C3_3 
REMARK    3  A    between atoms: C4_6  and  N4_9 
REMARK    4  A    between atoms: N3_7  and  C5_8 
ROOT
ATOM      1  C3  <0> d           1.295   1.749  -0.001  0.00  0.00     0.144 A 
ATOM      2  N1  <0> d           2.019   0.666  -0.014  0.00  0.00    -0.120 NA
ATOM      3  N2  <0> d           1.262  -0.372  -0.012  0.00  0.00     0.043 NA
ATOM      4  C4  <0> d           0.002  -0.004   0.002  0.00  0.00     0.719 A 
ATOM      5  N3  <0> d          -0.016   1.360   0.009  0.00  0.00    -0.170 N 
ENDROOT
BRANCH   1   6
ATOM      6  C2  <0> d           1.806   3.166   0.001  0.00  0.00    -0.011 C 
ATOM      7  H4  <0> d           2.762   3.208  -0.521  0.00  0.00     0.044 H 
ATOM      8  H5  <0> d           1.087   3.813  -0.503  0.00  0.00     0.044 H 
BRANCH   6   9
ATOM      9  C1  <0> d           1.993   3.639   1.444  0.00  0.00    -0.070 C 
ATOM     10  H1  <0> d           1.037   3.597   1.967  0.00  0.00     0.028 H 
ATOM     11  H2  <0> d           2.711   2.993   1.948  0.00  0.00     0.028 H 
ATOM     12  H3  <0> d           2.363   4.664   1.446  0.00  0.00     0.028 H 
ENDBRANCH   6   9
ENDBRANCH   1   6
BRANCH   5  13
ATOM     13  C5  <0> d          -1.196   2.229   0.020  0.00  0.00     0.004 C 
ATOM     14  H6  <0> d          -1.483   2.439   1.050  0.00  0.00     0.058 H 
ATOM     15  H7  <0> d          -0.964   3.163  -0.490  0.00  0.00     0.058 H 
ATOM     16  H8  <0> d          -2.019   1.730  -0.492  0.00  0.00     0.058 H 
ENDBRANCH   5  13
BRANCH   4  17
ATOM     17  N4  <0> d          -1.101  -0.843   0.008  0.00  0.00    -0.231 N 
ATOM     18  H9  <0> d          -1.996  -0.468   0.018  0.00  0.00     0.174 HD
ATOM     19  H10 <0> d          -0.979  -1.805   0.001  0.00  0.00     0.174 HD
ENDBRANCH   4  17
TORSDOF 4
