REMARK  1 active torsions:
REMARK  status: ('A' for Active; 'I' for Inactive)
REMARK    1  A    between atoms: C5_8  and  C6_9 
ROOT
ATOM      1  C1  <0> d           0.044   3.824   0.022  0.00  0.00    -0.060 A 
ATOM      2  C2  <0> d           0.126   5.181   0.029  0.00  0.00    -0.016 A 
ATOM      3  C3  <0> d           1.391   5.798   0.020  0.00  0.00     0.245 A 
ATOM      4  O1  <0> d           1.470   7.015   0.026  0.00  0.00    -0.268 OA
ATOM      5  N1  <0> d           2.514   5.056   0.005  0.00  0.00    -0.333 N 
ATOM      6  H1  <0> d           3.498   5.548  -0.006  0.00  0.00     0.168 HD
ATOM      7  C4  <0> d           2.457   3.712   0.004  0.00  0.00    -0.003 A 
ATOM      8  C5  <0> d           1.238   3.063   0.007  0.00  0.00     0.056 A 
ATOM      9  H2  <0> d          -0.918   3.333   0.028  0.00  0.00     0.085 H 
ATOM     10  H3  <0> d          -0.772   5.780   0.041  0.00  0.00     0.092 H 
ATOM     11  H4  <0> d           3.371   3.137  -0.003  0.00  0.00     0.113 H 
ENDROOT
BRANCH   8  12
ATOM     12  C6  <0> d           1.181   1.591  -0.001  0.00  0.00     0.210 C 
ATOM     13  O2  <0> d           2.209   0.943  -0.014  0.00  0.00    -0.644 OA
ATOM     14  O3  <0> d          -0.011   0.963   0.007  0.00  0.00    -0.644 OA
ENDBRANCH   8  12
TORSDOF 1
