REMARK  5 active torsions:
REMARK  status: ('A' for Active; 'I' for Inactive)
REMARK    1  A    between atoms: C1_1  and  C2_2 
REMARK    2  A    between atoms: C2_2  and  C3_3 
REMARK    3  A    between atoms: C2_2  and  C4_4 
REMARK    4  A    between atoms: C5_7  and  C6_9 
REMARK    5  A    between atoms: C6_9  and  O2_10 
ROOT
ATOM      1  C4  <0> d          -1.412  -0.526   0.013  0.00  0.00     0.172 A 
ATOM      2  N1  <0> d          -2.310  -0.300   0.929  0.00  0.00    -0.126 NA
ATOM      3  N2  <0> d          -3.403  -0.901   0.613  0.00  0.00    -0.124 NA
ATOM      4  C5  <0> d          -3.239  -1.530  -0.516  0.00  0.00     0.192 A 
ATOM      5  O1  <0> d          -1.979  -1.304  -0.924  0.00  0.00    -0.275 OA
ENDROOT
BRANCH   1   6
ATOM      6  C2  <0> d           0.002  -0.004   0.002  0.00  0.00     0.005 C 
ATOM      7  H4  <0> d           0.512  -0.356  -0.895  0.00  0.00     0.051 H 
BRANCH   6   8
ATOM      8  C1  <0> d          -0.019   1.526   0.010  0.00  0.00    -0.066 C 
ATOM      9  H1  <0> d           1.004   1.903   0.003  0.00  0.00     0.028 H 
ATOM     10  H2  <0> d          -0.546   1.887  -0.873  0.00  0.00     0.028 H 
ATOM     11  H3  <0> d          -0.529   1.877   0.907  0.00  0.00     0.028 H 
ENDBRANCH   6   8
BRANCH   6  12
ATOM     12  C3  <0> d           0.742  -0.511   1.242  0.00  0.00    -0.066 C 
ATOM     13  H5  <0> d           0.232  -0.159   2.138  0.00  0.00     0.028 H 
ATOM     14  H6  <0> d           0.757  -1.601   1.236  0.00  0.00     0.028 H 
ATOM     15  H7  <0> d           1.765  -0.134   1.234  0.00  0.00     0.028 H 
ENDBRANCH   6  12
ENDBRANCH   1   6
BRANCH   4  16
ATOM     16  C6  <0> d          -4.275  -2.356  -1.235  0.00  0.00     0.079 C 
ATOM     17  H8  <0> d          -3.781  -3.149  -1.797  0.00  0.00     0.086 H 
ATOM     18  H9  <0> d          -4.956  -2.797  -0.507  0.00  0.00     0.086 H 
BRANCH  16  19
ATOM     19  O2  <0> d          -5.010  -1.522  -2.132  0.00  0.00    -0.393 OA
ATOM     20  H10 <0> d          -5.696  -1.988  -2.630  0.00  0.00     0.210 HD
ENDBRANCH  16  19
ENDBRANCH   4  16
TORSDOF 5
