REMARK  2 active torsions:
REMARK  status: ('A' for Active; 'I' for Inactive)
REMARK    1  A    between atoms: C2_2  and  C3_3 
REMARK    2  A    between atoms: C3_3  and  C4_4 
ROOT
ATOM      1  C4  <0> d          -0.050   3.840   0.023  0.00  0.00    -0.055 A 
ATOM      2  C5  <0> d           1.156   3.165   0.008  0.00  0.00    -0.077 A 
ATOM      3  C6  <0> d           1.175   1.783   0.000  0.00  0.00    -0.082 A 
ATOM      4  C7  <0> d          -0.013   1.076   0.008  0.00  0.00    -0.083 A 
ATOM      5  C8  <0> d          -1.219   1.751   0.017  0.00  0.00    -0.082 A 
ATOM      6  C9  <0> d          -1.238   3.133   0.030  0.00  0.00    -0.077 A 
ATOM      7  H6  <0> d           2.084   3.718   0.002  0.00  0.00     0.084 H 
ATOM      8  H7  <0> d           2.118   1.256  -0.011  0.00  0.00     0.083 H 
ATOM      9  H8  <0> d           0.002  -0.004   0.002  0.00  0.00     0.083 H 
ATOM     10  H9  <0> d          -2.147   1.198   0.019  0.00  0.00     0.083 H 
ATOM     11  H10 <0> d          -2.180   3.660   0.041  0.00  0.00     0.084 H 
ENDROOT
BRANCH   1  12
ATOM     12  C3  <0> d          -0.070   5.347   0.031  0.00  0.00    -0.027 C 
ATOM     13  H4  <0> d          -0.960   5.696   0.555  0.00  0.00     0.045 H 
ATOM     14  H5  <0> d           0.819   5.720   0.538  0.00  0.00     0.045 H 
BRANCH  12  15
ATOM     15  C2  <0> d          -0.091   5.857  -1.387  0.00  0.00    -0.108 C 
ATOM     16  C1  <0> d          -1.035   6.678  -1.774  0.00  0.00    -0.124 C 
ATOM     17  H1  <0> d          -1.050   7.044  -2.790  0.00  0.00     0.066 H 
ATOM     18  H2  <0> d          -1.799   6.990  -1.077  0.00  0.00     0.066 H 
ATOM     19  H3  <0> d           0.673   5.545  -2.084  0.00  0.00     0.076 H 
ENDBRANCH  12  15
ENDBRANCH   1  12
TORSDOF 2
