REMARK  0 active torsions:
REMARK  status: ('A' for Active; 'I' for Inactive)
ROOT
ATOM      1  C1  <0> d           1.463  -0.381  -0.014  0.00  0.00    -0.003 A 
ATOM      2  C2  <0> d           2.165   0.963  -0.013  0.00  0.00    -0.011 A 
ATOM      3  N1  <0> d           1.258   1.876   0.000  0.00  0.00    -0.246 NA
ATOM      4  C3  <0> d          -0.017   1.393   0.010  0.00  0.00     0.141 A 
ATOM      5  C4  <0> d           0.002  -0.004   0.002  0.00  0.00     0.047 A 
ATOM      6  C5  <0> d          -1.186  -0.706   0.010  0.00  0.00     0.192 A 
ATOM      7  N2  <0> d          -2.331  -0.025   0.025  0.00  0.00    -0.298 N 
ATOM      8  C6  <0> d          -2.325   1.299   0.032  0.00  0.00     0.259 A 
ATOM      9  N3  <0> d          -1.207   2.002   0.029  0.00  0.00    -0.304 N 
ATOM     10  O1  <0> d          -3.510   1.956   0.047  0.00  0.00    -0.151 OA
ATOM     11  O2  <0> d          -1.189  -2.061   0.003  0.00  0.00    -0.171 OA
ATOM     12  H1  <0> d           1.697  -0.980   0.879  0.00  0.00     0.048 H 
ATOM     13  H2  <0> d           1.680  -0.970  -0.917  0.00  0.00     0.048 H 
ATOM     14  H3  <0> d           3.228   1.244  -0.022  0.00  0.00     0.108 H 
ATOM     15  H4  <0> d          -3.291  -0.562   0.031  0.00  0.00     0.171 HD
ATOM     16  H5  <0> d          -1.262   3.100   0.043  0.00  0.00     0.171 HD
ENDROOT
TORSDOF 0
