REMARK  3 active torsions:
REMARK  status: ('A' for Active; 'I' for Inactive)
REMARK    1  A    between atoms: C1_1  and  N1_2 
REMARK    2  A    between atoms: N1_2  and  C2_3 
REMARK       I    between atoms: N1_2  and  C3_4 
REMARK    3  A    between atoms: C3_4  and  C4_6 
ROOT
ATOM      1  N1  <0> d          -0.016   1.344   0.009  0.00  0.00    -0.360 N 
ATOM      2  C3  <0> d           0.002  -0.004   0.002  0.00  0.00     0.223 C 
ATOM      3  O1  <0> d           1.060  -0.596  -0.011  0.00  0.00    -0.273 OA
ENDROOT
BRANCH   2   4
ATOM      4  C4  <0> d          -1.293  -0.775   0.010  0.00  0.00     0.024 A 
ATOM      5  C6  <0> d          -1.205  -2.303   0.003  0.00  0.00    -0.053 A 
ATOM      6  C5  <0> d          -1.636  -1.566   1.274  0.00  0.00    -0.053 A 
ATOM      7  H10 <0> d          -1.972  -2.848  -0.546  0.00  0.00     0.034 H 
ATOM      8  H11 <0> d          -0.211  -2.750  -0.008  0.00  0.00     0.034 H 
ATOM      9  H8  <0> d          -0.925  -1.529   2.100  0.00  0.00     0.034 H 
ATOM     10  H9  <0> d          -2.686  -1.627   1.560  0.00  0.00     0.034 H 
ATOM     11  H7  <0> d          -2.117  -0.316  -0.535  0.00  0.00     0.054 H 
ENDBRANCH   2   4
BRANCH   1  12
ATOM     12  C1  <0> d           1.242   2.093   0.001  0.00  0.00    -0.017 C 
ATOM     13  H1  <0> d           1.545   2.285  -1.028  0.00  0.00     0.056 H 
ATOM     14  H2  <0> d           1.104   3.041   0.522  0.00  0.00     0.056 H 
ATOM     15  H3  <0> d           2.015   1.512   0.505  0.00  0.00     0.056 H 
ENDBRANCH   1  12
BRANCH   1  16
ATOM     16  C2  <0> d          -1.295   2.059   0.019  0.00  0.00    -0.017 C 
ATOM     17  H4  <0> d          -2.114   1.339   0.019  0.00  0.00     0.056 H 
ATOM     18  H5  <0> d          -1.357   2.680   0.913  0.00  0.00     0.056 H 
ATOM     19  H6  <0> d          -1.365   2.689  -0.867  0.00  0.00     0.056 H 
ENDBRANCH   1  16
TORSDOF 3
