REMARK  5 active torsions:
REMARK  status: ('A' for Active; 'I' for Inactive)
REMARK    1  A    between atoms: C1_1  and  C2_2 
REMARK    2  A    between atoms: C2_2  and  C3_4 
REMARK    3  A    between atoms: C2_2  and  O2_7 
REMARK       I    between atoms: C3_4  and  N1_6 
REMARK    4  A    between atoms: O2_7  and  C4_8 
REMARK    5  A    between atoms: C4_8  and  C5_10 
ROOT
ATOM      1  C2  <0> d          -1.330   1.944   0.019  0.00  0.00     0.121 C 
ATOM      2  H1  <0> d          -1.355   2.631   0.865  0.00  0.00     0.098 H 
ENDROOT
BRANCH   1   3
ATOM      3  C1  <0> d          -1.483   2.732  -1.283  0.00  0.00    -0.043 C 
ATOM      4  H2  <0> d          -2.434   3.264  -1.276  0.00  0.00     0.031 H 
ATOM      5  H3  <0> d          -0.667   3.449  -1.373  0.00  0.00     0.031 H 
ATOM      6  H4  <0> d          -1.458   2.045  -2.129  0.00  0.00     0.031 H 
ENDBRANCH   1   3
BRANCH   1   7
ATOM      7  C3  <0> d          -0.014   1.209   0.009  0.00  0.00     0.244 C 
ATOM      8  O1  <0> d           0.002  -0.004   0.002  0.00  0.00    -0.271 OA
ATOM      9  N1  <0> d           1.143   1.898   0.001  0.00  0.00    -0.368 N 
ATOM     10  H5  <0> d           1.990   1.425  -0.009  0.00  0.00     0.159 HD
ATOM     11  H6  <0> d           1.130   2.868   0.007  0.00  0.00     0.159 HD
ENDBRANCH   1   7
BRANCH   1  12
ATOM     12  O2  <0> d          -2.417   0.990   0.138  0.00  0.00    -0.307 OA
BRANCH  12  13
ATOM     13  C4  <0> d          -3.530   1.408   0.761  0.00  0.00     0.255 C 
ATOM     14  O3  <0> d          -3.593   2.535   1.193  0.00  0.00    -0.266 OA
BRANCH  13  15
ATOM     15  C5  <0> d          -4.700   0.473   0.923  0.00  0.00     0.004 C 
ATOM     16  H7  <0> d          -4.601  -0.075   1.860  0.00  0.00     0.041 H 
ATOM     17  H8  <0> d          -5.626   1.048   0.935  0.00  0.00     0.041 H 
ATOM     18  H9  <0> d          -4.721  -0.231   0.091  0.00  0.00     0.041 H 
ENDBRANCH  13  15
ENDBRANCH  12  13
ENDBRANCH   1  12
TORSDOF 5
