REMARK  1 active torsions:
REMARK  status: ('A' for Active; 'I' for Inactive)
REMARK    1  A    between atoms: C3_3  and  C7_8 
ROOT
ATOM      1  C1  <0> d          -0.013   1.086   0.008  0.00  0.00    -0.049 C 
ATOM      2  C2  <0> d          -0.747   1.590  -1.236  0.00  0.00    -0.049 C 
ATOM      3  C3  <0> d          -2.241   1.278  -1.078  0.00  0.00     0.034 C 
ATOM      4  H1  <0> d          -2.371   0.222  -0.838  0.00  0.00     0.057 H 
ATOM      5  C4  <0> d          -2.797   2.136   0.060  0.00  0.00    -0.037 C 
ATOM      6  C5  <0> d          -1.919   2.020   1.272  0.00  0.00    -0.106 C 
ATOM      7  C6  <0> d          -0.710   1.567   1.247  0.00  0.00    -0.106 C 
ATOM      8  H2  <0> d           0.002  -0.004   0.002  0.00  0.00     0.038 H 
ATOM      9  H3  <0> d           1.011   1.461   0.000  0.00  0.00     0.038 H 
ATOM     10  H4  <0> d          -0.607   2.666  -1.334  0.00  0.00     0.034 H 
ATOM     11  H5  <0> d          -0.359   1.085  -2.121  0.00  0.00     0.034 H 
ATOM     12  H6  <0> d          -2.836   3.178  -0.259  0.00  0.00     0.040 H 
ATOM     13  H7  <0> d          -3.803   1.799   0.309  0.00  0.00     0.040 H 
ATOM     14  H8  <0> d          -2.324   2.333   2.223  0.00  0.00     0.076 H 
ATOM     15  H9  <0> d          -0.166   1.533   2.179  0.00  0.00     0.076 H 
ENDROOT
BRANCH   3  16
ATOM     16  C7  <0> d          -2.965   1.603  -2.358  0.00  0.00     0.177 C 
ATOM     17  O1  <0> d          -2.353   2.041  -3.304  0.00  0.00    -0.648 OA
ATOM     18  O2  <0> d          -4.290   1.407  -2.449  0.00  0.00    -0.648 OA
ENDBRANCH   3  16
TORSDOF 1
