REMARK  7 active torsions:
REMARK  status: ('A' for Active; 'I' for Inactive)
REMARK    1  A    between atoms: C1_1  and  C2_2 
REMARK    2  A    between atoms: C2_2  and  C3_3 
REMARK    3  A    between atoms: C3_3  and  C4_4 
REMARK    4  A    between atoms: C5_5  and  C6_6 
REMARK    5  A    between atoms: C6_6  and  O2_8 
REMARK    6  A    between atoms: O2_8  and  C7_9 
REMARK    7  A    between atoms: C7_9  and  C8_10 
ROOT
ATOM      1  C4  <0> d           0.018  -1.178  -0.004  0.00  0.00    -0.096 C 
ATOM      2  C5  <0> d           0.002  -0.004   0.002  0.00  0.00     0.002 C 
ENDROOT
BRANCH   1   3
ATOM      3  C3  <0> d           0.038  -2.650  -0.013  0.00  0.00    -0.009 C 
ATOM      4  H6  <0> d          -0.985  -3.027  -0.005  0.00  0.00     0.051 H 
ATOM      5  H7  <0> d           0.548  -3.001  -0.909  0.00  0.00     0.051 H 
BRANCH   3   6
ATOM      6  C2  <0> d           0.778  -3.157   1.227  0.00  0.00    -0.059 C 
ATOM      7  H4  <0> d           1.800  -2.779   1.219  0.00  0.00     0.033 H 
ATOM      8  H5  <0> d           0.268  -2.805   2.124  0.00  0.00     0.033 H 
BRANCH   6   9
ATOM      9  C1  <0> d           0.799  -4.686   1.219  0.00  0.00    -0.076 C 
ATOM     10  H1  <0> d          -0.224  -5.064   1.226  0.00  0.00     0.027 H 
ATOM     11  H2  <0> d           1.309  -5.038   0.322  0.00  0.00     0.027 H 
ATOM     12  H3  <0> d           1.326  -5.048   2.102  0.00  0.00     0.027 H 
ENDBRANCH   6   9
ENDBRANCH   3   6
ENDBRANCH   1   3
BRANCH   2  13
ATOM     13  C6  <0> d          -0.017   1.428   0.010  0.00  0.00     0.339 C 
ATOM     14  O1  <0> d           1.027   2.050   0.003  0.00  0.00    -0.249 OA
BRANCH  13  15
ATOM     15  O2  <0> d          -1.194   2.086   0.019  0.00  0.00    -0.311 OA
BRANCH  15  16
ATOM     16  C7  <0> d          -1.137   3.537   0.027  0.00  0.00     0.026 C 
ATOM     17  H8  <0> d          -0.606   3.875   0.916  0.00  0.00     0.074 H 
ATOM     18  H9  <0> d          -0.614   3.885  -0.864  0.00  0.00     0.074 H 
BRANCH  16  19
ATOM     19  C8  <0> d          -2.559   4.102   0.036  0.00  0.00    -0.056 C 
ATOM     20  H10 <0> d          -3.091   3.764  -0.853  0.00  0.00     0.030 H 
ATOM     21  H11 <0> d          -3.082   3.754   0.927  0.00  0.00     0.030 H 
ATOM     22  H12 <0> d          -2.517   5.191   0.042  0.00  0.00     0.030 H 
ENDBRANCH  16  19
ENDBRANCH  15  16
ENDBRANCH  13  15
ENDBRANCH   2  13
TORSDOF 7
