REMARK  6 active torsions:
REMARK  status: ('A' for Active; 'I' for Inactive)
REMARK    1  A    between atoms: C1_1  and  C2_2 
REMARK    2  A    between atoms: C3_3  and  C4_4 
REMARK    3  A    between atoms: C5_5  and  C6_6 
REMARK    4  A    between atoms: C6_6  and  O1_7 
REMARK    5  A    between atoms: O1_7  and  C7_8 
REMARK    6  A    between atoms: C7_8  and  C8_10 
ROOT
ATOM      1  C4  <0> d          -0.938   0.737   2.258  0.00  0.00    -0.085 C 
ATOM      2  C5  <0> d          -0.718   1.572   1.248  0.00  0.00    -0.080 C 
ATOM      3  H6  <0> d          -0.611  -0.290   2.190  0.00  0.00     0.083 H 
ATOM      4  H7  <0> d          -1.045   2.599   1.316  0.00  0.00     0.080 H 
ENDROOT
BRANCH   2   5
ATOM      5  C6  <0> d          -0.013   1.086   0.008  0.00  0.00     0.044 C 
ATOM      6  H8  <0> d           0.002  -0.004   0.002  0.00  0.00     0.081 H 
ATOM      7  H9  <0> d           1.010   1.463   0.000  0.00  0.00     0.081 H 
BRANCH   5   8
ATOM      8  O1  <0> d          -0.715   1.567  -1.168  0.00  0.00    -0.318 OA
BRANCH   8   9
ATOM      9  C7  <0> d          -0.211   1.220  -2.363  0.00  0.00     0.255 C 
ATOM     10  O2  <0> d           0.783   0.536  -2.424  0.00  0.00    -0.266 OA
BRANCH   9  11
ATOM     11  C8  <0> d          -0.887   1.682  -3.629  0.00  0.00     0.004 C 
ATOM     12  H10 <0> d          -0.468   2.640  -3.935  0.00  0.00     0.041 H 
ATOM     13  H11 <0> d          -0.725   0.946  -4.417  0.00  0.00     0.041 H 
ATOM     14  H12 <0> d          -1.956   1.793  -3.450  0.00  0.00     0.041 H 
ENDBRANCH   9  11
ENDBRANCH   8   9
ENDBRANCH   5   8
ENDBRANCH   2   5
BRANCH   1  15
ATOM     15  C3  <0> d          -1.626   1.211   3.468  0.00  0.00    -0.087 C 
ATOM     16  C2  <0> d          -1.846   0.376   4.478  0.00  0.00    -0.107 C 
ATOM     17  H4  <0> d          -2.351   0.724   5.367  0.00  0.00     0.076 H 
ATOM     18  H5  <0> d          -1.953   2.238   3.536  0.00  0.00     0.083 H 
BRANCH  16  19
ATOM     19  C1  <0> d          -1.390  -1.057   4.384  0.00  0.00    -0.060 C 
ATOM     20  H1  <0> d          -1.875  -1.538   3.534  0.00  0.00     0.032 H 
ATOM     21  H2  <0> d          -0.308  -1.086   4.248  0.00  0.00     0.032 H 
ATOM     22  H3  <0> d          -1.655  -1.584   5.300  0.00  0.00     0.032 H 
ENDBRANCH  16  19
ENDBRANCH   1  15
TORSDOF 6
