REMARK  5 active torsions:
REMARK  status: ('A' for Active; 'I' for Inactive)
REMARK    1  A    between atoms: C1_1  and  N1_2 
REMARK    2  A    between atoms: C2_3  and  C3_7 
REMARK    3  A    between atoms: C3_7  and  C4_8 
REMARK    4  A    between atoms: C4_8  and  O1_9 
REMARK    5  A    between atoms: O1_9  and  C5_10 
ROOT
ATOM      1  C3  <0> d          -0.729   1.579   1.267  0.00  0.00     0.013 C 
ATOM      2  H4  <0> d          -0.744   2.669   1.273  0.00  0.00     0.048 H 
ATOM      3  H5  <0> d          -1.751   1.202   1.275  0.00  0.00     0.048 H 
ENDROOT
BRANCH   1   4
ATOM      4  C2  <0> d           0.000   1.080   2.488  0.00  0.00     0.149 A 
ATOM      5  N1  <0> d           1.000   1.704   3.138  0.00  0.00    -0.239 N 
ATOM      6  N4  <0> d           1.343   0.946   4.124  0.00  0.00    -0.045 NA
ATOM      7  N3  <0> d           0.606  -0.110   4.112  0.00  0.00    -0.023 NA
ATOM      8  N2  <0> d          -0.221  -0.043   3.126  0.00  0.00    -0.114 NA
BRANCH   5   9
ATOM      9  C1  <0> d           1.588   3.000   2.791  0.00  0.00     0.006 C 
ATOM     10  H1  <0> d           1.048   3.794   3.307  0.00  0.00     0.059 H 
ATOM     11  H2  <0> d           2.635   3.017   3.094  0.00  0.00     0.059 H 
ATOM     12  H3  <0> d           1.518   3.154   1.714  0.00  0.00     0.059 H 
ENDBRANCH   5   9
ENDBRANCH   1   4
BRANCH   1  13
ATOM     13  C4  <0> d          -0.013   1.086   0.008  0.00  0.00     0.025 C 
ATOM     14  H6  <0> d           0.002  -0.004   0.002  0.00  0.00     0.074 H 
ATOM     15  H7  <0> d           1.010   1.463   0.000  0.00  0.00     0.074 H 
BRANCH  13  16
ATOM     16  O1  <0> d          -0.704   1.559  -1.150  0.00  0.00    -0.396 OA
BRANCH  16  17
ATOM     17  C5  <0> d          -0.114   1.152  -2.386  0.00  0.00     0.004 C 
ATOM     18  H8  <0> d          -0.101   0.064  -2.442  0.00  0.00     0.066 H 
ATOM     19  H9  <0> d          -0.697   1.552  -3.216  0.00  0.00     0.066 H 
ATOM     20  H10 <0> d           0.907   1.531  -2.443  0.00  0.00     0.066 H 
ENDBRANCH  16  17
ENDBRANCH  13  16
ENDBRANCH   1  13
TORSDOF 5
