REMARK  7 active torsions:
REMARK  status: ('A' for Active; 'I' for Inactive)
REMARK    1  A    between atoms: C1_1  and  C2_2 
REMARK    2  A    between atoms: C2_2  and  C3_3 
REMARK    3  A    between atoms: C3_3  and  C4_5 
REMARK    4  A    between atoms: C3_3  and  O1_9 
REMARK    5  A    between atoms: C4_5  and  C5_6 
REMARK    6  A    between atoms: C5_6  and  C6_7 
REMARK    7  A    between atoms: C5_6  and  C7_8 
ROOT
ATOM      1  C4  <0> d          -0.738   2.023   1.280  0.00  0.00    -0.038 C 
ATOM      2  H7  <0> d          -1.688   1.517   1.453  0.00  0.00     0.037 H 
ATOM      3  H8  <0> d          -0.063   1.823   2.112  0.00  0.00     0.037 H 
ENDROOT
BRANCH   1   4
ATOM      4  C3  <0> d          -0.977   3.530   1.168  0.00  0.00     0.035 C 
ATOM      5  H1  <0> d          -1.595   3.737   0.294  0.00  0.00     0.082 H 
BRANCH   4   6
ATOM      6  C2  <0> d          -1.692   4.028   2.426  0.00  0.00    -0.044 C 
ATOM      7  H5  <0> d          -2.605   3.453   2.577  0.00  0.00     0.036 H 
ATOM      8  H6  <0> d          -1.037   3.903   3.289  0.00  0.00     0.036 H 
BRANCH   6   9
ATOM      9  C1  <0> d          -2.042   5.508   2.262  0.00  0.00    -0.074 C 
ATOM     10  H2  <0> d          -2.551   5.863   3.159  0.00  0.00     0.027 H 
ATOM     11  H3  <0> d          -1.128   6.083   2.112  0.00  0.00     0.027 H 
ATOM     12  H4  <0> d          -2.696   5.633   1.399  0.00  0.00     0.027 H 
ENDBRANCH   6   9
ENDBRANCH   4   6
BRANCH   4  13
ATOM     13  O1  <0> d           0.277   4.203   1.035  0.00  0.00    -0.396 OA
ATOM     14  H16 <0> d           0.878   4.064   1.778  0.00  0.00     0.210 HD
ENDBRANCH   4  13
ENDBRANCH   1   4
BRANCH   1  15
ATOM     15  C5  <0> d          -0.114   1.508  -0.019  0.00  0.00    -0.059 C 
ATOM     16  H9  <0> d           0.784   2.084  -0.243  0.00  0.00     0.039 H 
BRANCH  15  17
ATOM     17  C6  <0> d          -1.118   1.662  -1.163  0.00  0.00    -0.073 C 
ATOM     18  H10 <0> d          -2.016   1.087  -0.938  0.00  0.00     0.028 H 
ATOM     19  H11 <0> d          -1.380   2.714  -1.278  0.00  0.00     0.028 H 
ATOM     20  H12 <0> d          -0.673   1.296  -2.088  0.00  0.00     0.028 H 
ENDBRANCH  15  17
BRANCH  15  21
ATOM     21  C7  <0> d           0.253   0.032   0.142  0.00  0.00    -0.073 C 
ATOM     22  H13 <0> d           0.616  -0.358  -0.808  0.00  0.00     0.028 H 
ATOM     23  H14 <0> d           1.032  -0.068   0.898  0.00  0.00     0.028 H 
ATOM     24  H15 <0> d          -0.628  -0.530   0.453  0.00  0.00     0.028 H 
ENDBRANCH  15  21
ENDBRANCH   1  15
TORSDOF 7
