REMARK  1 active torsions:
REMARK  status: ('A' for Active; 'I' for Inactive)
REMARK    1  A    between atoms: C1_1  and  N3_7 
ROOT
ATOM      1  C1  <0> d           1.102   1.972   0.002  0.00  0.00     0.188 A 
ATOM      2  N1  <0> d          -0.015   1.257   0.009  0.00  0.00    -0.123 NA
ATOM      3  N2  <0> d           0.002  -0.004   0.002  0.00  0.00    -0.128 NA
ATOM      4  C2  <0> d           1.127  -0.691  -0.012  0.00  0.00     0.193 A 
ATOM      5  S1  <0> d           2.312   0.652  -0.017  0.00  0.00    -0.017 SA
ATOM      6 Cl1  <0> d           1.387  -2.407  -0.024  0.00  0.00    -0.052 Cl
ENDROOT
BRANCH   1   7
ATOM      7  N3  <0> d           1.281   3.348   0.007  0.00  0.00    -0.377 N 
ATOM      8  H1  <0> d           0.407   4.016   0.019  0.00  0.00     0.158 HD
ATOM      9  H2  <0> d           2.297   3.770  -0.000  0.00  0.00     0.158 HD
ENDBRANCH   1   7
TORSDOF 1
