REMARK  3 active torsions:
REMARK  status: ('A' for Active; 'I' for Inactive)
REMARK    1  A    between atoms: C1_1  and  C2_2 
REMARK    2  A    between atoms: C2_2  and  C3_3 
REMARK    3  A    between atoms: C8_8  and  C9_9 
ROOT
ATOM      1  C3  <0> d           1.169   2.210   0.003  0.00  0.00    -0.053 A 
ATOM      2  C4  <0> d           1.150   3.592   0.010  0.00  0.00    -0.076 A 
ATOM      3  C5  <0> d          -0.056   4.267   0.025  0.00  0.00    -0.082 A 
ATOM      4  C6  <0> d          -1.244   3.560   0.032  0.00  0.00    -0.082 A 
ATOM      5  C7  <0> d          -1.225   2.178   0.020  0.00  0.00    -0.077 A 
ATOM      6  C8  <0> d          -0.018   1.503   0.010  0.00  0.00    -0.056 A 
ATOM      7  H6  <0> d           2.078   4.145   0.004  0.00  0.00     0.084 H 
ATOM      8  H7  <0> d          -0.070   5.347   0.030  0.00  0.00     0.083 H 
ATOM      9  H8  <0> d          -2.186   4.087   0.043  0.00  0.00     0.083 H 
ATOM     10  H9  <0> d          -2.153   1.625   0.021  0.00  0.00     0.084 H 
ENDROOT
BRANCH   1  11
ATOM     11  C2  <0> d           2.484   1.474  -0.014  0.00  0.00    -0.044 C 
ATOM     12  H4  <0> d           3.260   2.107   0.416  0.00  0.00     0.039 H 
ATOM     13  H5  <0> d           2.396   0.559   0.572  0.00  0.00     0.039 H 
BRANCH  11  14
ATOM     14  C1  <0> d           2.854   1.123  -1.456  0.00  0.00    -0.073 C 
ATOM     15  H1  <0> d           2.942   2.039  -2.042  0.00  0.00     0.028 H 
ATOM     16  H2  <0> d           3.805   0.591  -1.468  0.00  0.00     0.028 H 
ATOM     17  H3  <0> d           2.078   0.490  -1.887  0.00  0.00     0.028 H 
ENDBRANCH  11  14
ENDBRANCH   1  11
BRANCH   6  18
ATOM     18  C9  <0> d           0.002  -0.004   0.002  0.00  0.00    -0.051 C 
ATOM     19  H10 <0> d           0.017  -0.373   1.028  0.00  0.00     0.033 H 
ATOM     20  H11 <0> d          -0.888  -0.377  -0.505  0.00  0.00     0.033 H 
ATOM     21  H12 <0> d           0.892  -0.352  -0.522  0.00  0.00     0.033 H 
ENDBRANCH   6  18
TORSDOF 3
