REMARK  1 active torsions:
REMARK  status: ('A' for Active; 'I' for Inactive)
REMARK    1  A    between atoms: C2_2  and  C3_3 
ROOT
ATOM      1  C3  <0> d          -1.266  -0.759   0.010  0.00  0.00     0.055 A 
ATOM      2  C4  <0> d          -1.237  -2.156   0.008  0.00  0.00    -0.054 A 
ATOM      3  C5  <0> d          -2.427  -2.855   0.016  0.00  0.00    -0.059 A 
ATOM      4  C6  <0> d          -3.627  -2.128   0.026  0.00  0.00     0.062 A 
ATOM      5  C7  <0> d          -3.575  -0.732   0.027  0.00  0.00     0.023 A 
ATOM      6  N1  <0> d          -2.421  -0.102   0.025  0.00  0.00    -0.260 NA
ATOM      7  C8  <0> d          -4.887  -2.808   0.034  0.00  0.00     0.101 C 
ATOM      8  N2  <0> d          -5.886  -3.348   0.041  0.00  0.00    -0.191 NA
ATOM      9  H4  <0> d          -0.294  -2.683   0.000  0.00  0.00     0.087 H 
ATOM     10  H5  <0> d          -2.434  -3.934   0.015  0.00  0.00     0.086 H 
ATOM     11  H6  <0> d          -4.494  -0.164   0.035  0.00  0.00     0.117 H 
ENDROOT
BRANCH   1  12
ATOM     12  C2  <0> d           0.002  -0.004   0.002  0.00  0.00    -0.064 C 
ATOM     13  C1  <0> d          -0.016   1.323   0.009  0.00  0.00    -0.119 C 
ATOM     14  H1  <0> d           0.912   1.876   0.003  0.00  0.00     0.066 H 
ATOM     15  H2  <0> d          -0.959   1.850   0.017  0.00  0.00     0.066 H 
ATOM     16  H3  <0> d           0.945  -0.531  -0.010  0.00  0.00     0.085 H 
ENDBRANCH   1  12
TORSDOF 1
