REMARK  3 active torsions:
REMARK  status: ('A' for Active; 'I' for Inactive)
REMARK    1  A    between atoms: C3_3  and  C7_9 
REMARK    2  A    between atoms: C4_4  and  O2_8 
REMARK    3  A    between atoms: C6_6  and  O1_7 
ROOT
ATOM      1  C1  <0> d          -0.017   1.388   0.010  0.00  0.00    -0.050 A 
ATOM      2  C2  <0> d           1.151   2.094   0.002  0.00  0.00    -0.061 A 
ATOM      3  C3  <0> d           2.378   1.421  -0.013  0.00  0.00     0.074 A 
ATOM      4  C4  <0> d           2.401   0.016  -0.021  0.00  0.00     0.085 A 
ATOM      5  C5  <0> d           1.209  -0.688  -0.013  0.00  0.00    -0.018 A 
ATOM      6  C6  <0> d           0.002  -0.004   0.002  0.00  0.00     0.068 A 
ATOM      7  H1  <0> d          -0.961   1.912   0.026  0.00  0.00     0.087 H 
ATOM      8  H2  <0> d           1.128   3.174   0.008  0.00  0.00     0.085 H 
ATOM      9  H3  <0> d           1.219  -1.768  -0.019  0.00  0.00     0.092 H 
ENDROOT
BRANCH   3  10
ATOM     10  C7  <0> d           3.636   2.179  -0.021  0.00  0.00     0.212 C 
ATOM     11  O3  <0> d           3.613   3.403  -0.015  0.00  0.00    -0.644 OA
ATOM     12  O4  <0> d           4.707   1.588  -0.035  0.00  0.00    -0.644 OA
ENDBRANCH   3  10
BRANCH   4  13
ATOM     13  O2  <0> d           3.584  -0.647  -0.036  0.00  0.00    -0.360 OA
ATOM     14  H5  <0> d           3.936  -0.844   0.843  0.00  0.00     0.217 HD
ENDBRANCH   4  13
BRANCH   6  15
ATOM     15  O1  <0> d          -1.165  -0.695   0.009  0.00  0.00    -0.361 OA
ATOM     16  H4  <0> d          -1.512  -0.891  -0.872  0.00  0.00     0.217 HD
ENDBRANCH   6  15
TORSDOF 3
