REMARK  4 active torsions:
REMARK  status: ('A' for Active; 'I' for Inactive)
REMARK    1  A    between atoms: C1_1  and  C2_2 
REMARK    2  A    between atoms: C4_4  and  N1_10 
REMARK    3  A    between atoms: C5_5  and  O1_9 
REMARK    4  A    between atoms: C7_7  and  C8_8 
ROOT
ATOM      1  C2  <0> d           2.381   1.416  -0.013  0.00  0.00    -0.054 A 
ATOM      2  C3  <0> d           1.177   2.095   0.002  0.00  0.00    -0.049 A 
ATOM      3  C4  <0> d          -0.017   1.389   0.010  0.00  0.00     0.059 A 
ATOM      4  C5  <0> d           0.002  -0.004   0.002  0.00  0.00     0.092 A 
ATOM      5  C6  <0> d           1.212  -0.677  -0.013  0.00  0.00    -0.043 A 
ATOM      6  C7  <0> d           2.399   0.034  -0.021  0.00  0.00    -0.053 A 
ATOM      7  H4  <0> d           1.166   3.175   0.008  0.00  0.00     0.087 H 
ATOM      8  H5  <0> d           1.230  -1.756  -0.019  0.00  0.00     0.088 H 
ENDROOT
BRANCH   1   9
ATOM      9  C1  <0> d           3.677   2.185  -0.020  0.00  0.00    -0.051 C 
ATOM     10  H1  <0> d           3.980   2.376  -1.050  0.00  0.00     0.033 H 
ATOM     11  H2  <0> d           3.541   3.133   0.500  0.00  0.00     0.033 H 
ATOM     12  H3  <0> d           4.449   1.601   0.483  0.00  0.00     0.033 H 
ENDBRANCH   1   9
BRANCH   6  13
ATOM     13  C8  <0> d           3.715  -0.700  -0.037  0.00  0.00    -0.051 C 
ATOM     14  H6  <0> d           4.022  -0.872  -1.069  0.00  0.00     0.033 H 
ATOM     15  H7  <0> d           4.471  -0.103   0.473  0.00  0.00     0.033 H 
ATOM     16  H8  <0> d           3.603  -1.657   0.473  0.00  0.00     0.033 H 
ENDBRANCH   6  13
BRANCH   3  17
ATOM     17  N1  <0> d          -1.237   2.075   0.019  0.00  0.00    -0.397 N 
ATOM     18  H10 <0> d          -2.071   1.579   0.020  0.00  0.00     0.156 HD
ATOM     19  H11 <0> d          -1.249   3.044   0.025  0.00  0.00     0.156 HD
ENDBRANCH   3  17
BRANCH   4  20
ATOM     20  O1  <0> d          -1.165  -0.702   0.009  0.00  0.00    -0.358 OA
ATOM     21  H9  <0> d          -1.511  -0.899  -0.872  0.00  0.00     0.217 HD
ENDBRANCH   4  20
TORSDOF 4
