REMARK  6 active torsions:
REMARK  status: ('A' for Active; 'I' for Inactive)
REMARK    1  A    between atoms: C1_1  and  C2_2 
REMARK    2  A    between atoms: C2_2  and  C3_3 
REMARK    3  A    between atoms: C3_3  and  O1_4 
REMARK    4  A    between atoms: O1_4  and  C4_5 
REMARK    5  A    between atoms: C4_5  and  C5_6 
REMARK    6  A    between atoms: C5_6  and  O2_7 
ROOT
ATOM      1  C3  <0> d           0.367   4.914   1.348  0.00  0.00     0.019 C 
ATOM      2  H6  <0> d           1.336   5.409   1.280  0.00  0.00     0.074 H 
ATOM      3  H7  <0> d          -0.277   5.263   0.542  0.00  0.00     0.074 H 
ENDROOT
BRANCH   1   4
ATOM      4  C2  <0> d          -0.278   5.242   2.696  0.00  0.00    -0.049 C 
ATOM      5  H4  <0> d          -1.247   4.747   2.765  0.00  0.00     0.035 H 
ATOM      6  H5  <0> d           0.366   4.892   3.502  0.00  0.00     0.035 H 
BRANCH   4   7
ATOM      7  C1  <0> d          -0.469   6.755   2.816  0.00  0.00    -0.075 C 
ATOM      8  H1  <0> d           0.499   7.250   2.747  0.00  0.00     0.027 H 
ATOM      9  H2  <0> d          -1.114   7.104   2.009  0.00  0.00     0.027 H 
ATOM     10  H3  <0> d          -0.929   6.988   3.776  0.00  0.00     0.027 H 
ENDBRANCH   4   7
ENDBRANCH   1   4
BRANCH   1  11
ATOM     11  O1  <0> d           0.546   3.500   1.237  0.00  0.00    -0.389 OA
BRANCH  11  12
ATOM     12  C4  <0> d           1.145   3.085   0.008  0.00  0.00     0.039 C 
ATOM     13  H8  <0> d           2.130   3.542  -0.089  0.00  0.00     0.077 H 
ATOM     14  H9  <0> d           0.516   3.397  -0.827  0.00  0.00     0.077 H 
BRANCH  12  15
ATOM     15  C5  <0> d           1.286   1.562  -0.002  0.00  0.00     0.036 C 
ATOM     16  H10 <0> d           1.840   1.243   0.881  0.00  0.00     0.077 H 
ATOM     17  H11 <0> d           1.823   1.252  -0.899  0.00  0.00     0.077 H 
BRANCH  15  18
ATOM     18  O2  <0> d          -0.011   0.963   0.007  0.00  0.00    -0.399 OA
ATOM     19  H12 <0> d           0.002  -0.004   0.002  0.00  0.00     0.209 HD
ENDBRANCH  15  18
ENDBRANCH  12  15
ENDBRANCH  11  12
ENDBRANCH   1  11
TORSDOF 6
