REMARK  0 active torsions:
REMARK  status: ('A' for Active; 'I' for Inactive)
ROOT
ATOM      1  C1  <0> d          -3.612   3.132   0.053  0.00  0.00    -0.065 A 
ATOM      2  C2  <0> d          -2.462   3.869   0.047  0.00  0.00    -0.069 A 
ATOM      3  C3  <0> d          -1.233   3.182   0.032  0.00  0.00    -0.004 A 
ATOM      4  C4  <0> d          -0.010   3.872   0.024  0.00  0.00    -0.034 A 
ATOM      5  C5  <0> d           1.159   3.170   0.008  0.00  0.00     0.117 A 
ATOM      6  C6  <0> d           1.155   1.774   0.001  0.00  0.00    -0.043 A 
ATOM      7  C7  <0> d          -0.013   1.076   0.008  0.00  0.00    -0.051 A 
ATOM      8  C8  <0> d          -1.238   1.765   0.018  0.00  0.00     0.067 A 
ATOM      9  N1  <0> d          -2.400   1.104   0.030  0.00  0.00    -0.260 NA
ATOM     10  C9  <0> d          -3.546   1.740   0.045  0.00  0.00     0.003 A 
ATOM     11  F1  <0> d           2.335   3.834   0.000  0.00  0.00    -0.206 F 
ATOM     12  H1  <0> d          -4.571   3.628   0.065  0.00  0.00     0.085 H 
ATOM     13  H2  <0> d          -2.494   4.948   0.054  0.00  0.00     0.085 H 
ATOM     14  H3  <0> d           0.004   4.952   0.029  0.00  0.00     0.089 H 
ATOM     15  H4  <0> d           2.093   1.240  -0.012  0.00  0.00     0.088 H 
ATOM     16  H5  <0> d           0.002  -0.004   0.002  0.00  0.00     0.087 H 
ATOM     17  H6  <0> d          -4.464   1.171   0.050  0.00  0.00     0.114 H 
ENDROOT
TORSDOF 0
