REMARK  2 active torsions:
REMARK  status: ('A' for Active; 'I' for Inactive)
REMARK    1  A    between atoms: C1_1  and  N1_2 
REMARK    2  A    between atoms: C2_3  and  C4_7 
ROOT
ATOM      1  N1  <0> d           0.002  -0.004   0.002  0.00  0.00    -0.250 N 
ATOM      2  C2  <0> d           0.008  -0.793  -1.097  0.00  0.00     0.225 A 
ATOM      3  N2  <0> d           0.027  -2.046  -0.676  0.00  0.00    -0.215 NA
ATOM      4  C3  <0> d           0.032  -2.018   0.651  0.00  0.00     0.108 A 
ATOM      5  N3  <0> d           0.023  -0.766   1.041  0.00  0.00    -0.164 NA
ATOM      6  H4  <0> d           0.047  -2.880   1.301  0.00  0.00     0.149 H 
ENDROOT
BRANCH   1   7
ATOM      7  C1  <0> d          -0.018   1.461   0.010  0.00  0.00     0.005 C 
ATOM      8  H1  <0> d           1.005   1.838   0.002  0.00  0.00     0.059 H 
ATOM      9  H2  <0> d          -0.545   1.822  -0.873  0.00  0.00     0.059 H 
ATOM     10  H3  <0> d          -0.528   1.812   0.907  0.00  0.00     0.059 H 
ENDBRANCH   1   7
BRANCH   2  11
ATOM     11  C4  <0> d          -0.005  -0.340  -2.501  0.00  0.00     0.248 C 
ATOM     12  O1  <0> d          -0.022   0.856  -2.757  0.00  0.00    -0.642 OA
ATOM     13  O2  <0> d           0.002  -1.160  -3.408  0.00  0.00    -0.642 OA
ENDBRANCH   2  11
TORSDOF 2
