REMARK  0 active torsions:
REMARK  status: ('A' for Active; 'I' for Inactive)
ROOT
ATOM      1  C1  <0> d          -0.018   1.510   0.010  0.00  0.00     0.006 C 
ATOM      2  C2  <0> d           1.517   1.461  -0.005  0.00  0.00     0.043 C 
ATOM      3  C3  <0> d           1.367   0.080   0.653  0.00  0.00     0.006 C 
ATOM      4  C4  <0> d           0.002  -0.004   0.002  0.00  0.00     0.129 C 
ATOM      5  O1  <0> d          -0.739  -0.885  -0.362  0.00  0.00    -0.298 OA
ATOM      6  C5  <0> d           2.098   1.416  -1.357  0.00  0.00     0.064 C 
ATOM      7  N1  <0> d           2.546   1.381  -2.400  0.00  0.00    -0.197 NA
ATOM      8  H1  <0> d          -0.432   1.935   0.925  0.00  0.00     0.046 H 
ATOM      9  H2  <0> d          -0.449   1.945  -0.891  0.00  0.00     0.046 H 
ATOM     10  H3  <0> d           1.988   2.206   0.638  0.00  0.00     0.064 H 
ATOM     11  H4  <0> d           2.074  -0.660   0.279  0.00  0.00     0.046 H 
ATOM     12  H5  <0> d           1.329   0.118   1.741  0.00  0.00     0.046 H 
ENDROOT
TORSDOF 0
