REMARK  1 active torsions:
REMARK  status: ('A' for Active; 'I' for Inactive)
REMARK    1  A    between atoms: C5_5  and  O1_8 
ROOT
ATOM      1  C1  <0> d          -0.013   1.076   0.008  0.00  0.00    -0.005 A 
ATOM      2  C2  <0> d           1.177   1.784   0.000  0.00  0.00     0.122 A 
ATOM      3  C3  <0> d           1.161   3.168   0.007  0.00  0.00    -0.005 A 
ATOM      4  C4  <0> d          -0.045   3.847   0.022  0.00  0.00     0.155 A 
ATOM      5  C5  <0> d          -1.239   3.139   0.030  0.00  0.00     0.143 A 
ATOM      6  C6  <0> d          -1.220   1.751   0.017  0.00  0.00     0.155 A 
ATOM      7  F1  <0> d          -2.381   1.060   0.019  0.00  0.00    -0.203 F 
ATOM      8  F2  <0> d          -0.060   5.198   0.029  0.00  0.00    -0.203 F 
ATOM      9  F3  <0> d           2.355   1.123  -0.014  0.00  0.00    -0.206 F 
ATOM     10  H1  <0> d           0.002  -0.004   0.002  0.00  0.00     0.093 H 
ATOM     11  H2  <0> d           2.090   3.719   0.000  0.00  0.00     0.093 H 
ENDROOT
BRANCH   5  12
ATOM     12  O1  <0> d          -2.425   3.804   0.044  0.00  0.00    -0.355 OA
ATOM     13  H3  <0> d          -2.777   4.001  -0.835  0.00  0.00     0.218 HD
ENDBRANCH   5  12
TORSDOF 1
