REMARK  2 active torsions:
REMARK  status: ('A' for Active; 'I' for Inactive)
REMARK    1  A    between atoms: C1_1  and  C2_2 
REMARK    2  A    between atoms: C2_2  and  C3_3 
ROOT
ATOM      1  C2  <0> d          -1.200  -0.912   0.009  0.00  0.00    -0.005 C 
ATOM      2  H4  <0> d          -0.949  -1.844   0.516  0.00  0.00     0.044 H 
ATOM      3  H5  <0> d          -2.022  -0.424   0.533  0.00  0.00     0.044 H 
ENDROOT
BRANCH   1   4
ATOM      4  C1  <0> d          -1.621  -1.212  -1.431  0.00  0.00    -0.069 C 
ATOM      5  H1  <0> d          -1.873  -0.281  -1.938  0.00  0.00     0.028 H 
ATOM      6  H2  <0> d          -0.800  -1.701  -1.955  0.00  0.00     0.028 H 
ATOM      7  H3  <0> d          -2.491  -1.869  -1.426  0.00  0.00     0.028 H 
ENDBRANCH   1   4
BRANCH   1   8
ATOM      8  C3  <0> d           0.002  -0.004   0.002  0.00  0.00     0.168 A 
ATOM      9  O1  <0> d           1.289  -0.389  -0.012  0.00  0.00    -0.286 OA
ATOM     10  C4  <0> d           2.022   0.737  -0.013  0.00  0.00     0.126 A 
ATOM     11  N2  <0> d           1.192   1.742   0.000  0.00  0.00    -0.136 NA
ATOM     12  H6  <0> d           3.100   0.799  -0.024  0.00  0.00     0.158 H 
ATOM     13  N1  <0> d          -0.016   1.298   0.009  0.00  0.00    -0.128 NA
ENDBRANCH   1   8
TORSDOF 2
