REMARK  3 active torsions:
REMARK  status: ('A' for Active; 'I' for Inactive)
REMARK    1  A    between atoms: C1_1  and  O1_2 
REMARK    2  A    between atoms: O1_2  and  C2_3 
REMARK    3  A    between atoms: C4_5  and  C6_8 
ROOT
ATOM      1  C2  <0> d          -3.680   1.975   0.030  0.00  0.00     0.110 A 
ATOM      2  C3  <0> d          -2.556   1.223   0.015  0.00  0.00    -0.027 A 
ATOM      3  C4  <0> d          -1.297   1.929   0.019  0.00  0.00     0.050 A 
ATOM      4  C5  <0> d          -1.351   3.307   0.026  0.00  0.00    -0.026 A 
ATOM      5  S1  <0> d          -3.050   3.641   0.035  0.00  0.00    -0.076 SA
ATOM      6  H4  <0> d          -2.598   0.143   0.006  0.00  0.00     0.090 H 
ATOM      7  H5  <0> d          -0.531   4.009   0.026  0.00  0.00     0.096 H 
ENDROOT
BRANCH   1   8
ATOM      8  O1  <0> d          -4.974   1.560   0.033  0.00  0.00    -0.349 OA
BRANCH   8   9
ATOM      9  C1  <0> d          -5.980   2.575   0.042  0.00  0.00     0.011 C 
ATOM     10  H1  <0> d          -5.867   3.190   0.935  0.00  0.00     0.067 H 
ATOM     11  H2  <0> d          -5.875   3.199  -0.845  0.00  0.00     0.067 H 
ATOM     12  H3  <0> d          -6.966   2.109   0.044  0.00  0.00     0.067 H 
ENDBRANCH   8   9
ENDBRANCH   1   8
BRANCH   3  13
ATOM     13  C6  <0> d          -0.014   1.212   0.009  0.00  0.00     0.209 C 
ATOM     14  O2  <0> d           0.002  -0.004   0.002  0.00  0.00    -0.644 OA
ATOM     15  O3  <0> d           1.144   1.901   0.001  0.00  0.00    -0.644 OA
ENDBRANCH   3  13
TORSDOF 3
