REMARK  5 active torsions:
REMARK  status: ('A' for Active; 'I' for Inactive)
REMARK    1  A    between atoms: C1_1  and  C2_2 
REMARK    2  A    between atoms: C6_6  and  C8_9 
REMARK    3  A    between atoms: C7_7  and  N1_8 
REMARK    4  A    between atoms: C8_9  and  C9_10 
REMARK    5  A    between atoms: C8_9  and  C10_11 
ROOT
ATOM      1  C2  <0> d           2.404   0.082   0.244  0.00  0.00    -0.035 A 
ATOM      2  C3  <0> d           1.238  -0.660   0.237  0.00  0.00    -0.075 A 
ATOM      3  C4  <0> d           0.026  -0.043  -0.011  0.00  0.00    -0.082 A 
ATOM      4  C5  <0> d          -0.024   1.318  -0.254  0.00  0.00    -0.074 A 
ATOM      5  C6  <0> d           1.137   2.065  -0.249  0.00  0.00    -0.028 A 
ATOM      6  C7  <0> d           2.357   1.448   0.001  0.00  0.00     0.038 A 
ATOM      7  H4  <0> d           1.274  -1.723   0.426  0.00  0.00     0.084 H 
ATOM      8  H5  <0> d          -0.884  -0.625  -0.016  0.00  0.00     0.083 H 
ATOM      9  H6  <0> d          -0.972   1.796  -0.453  0.00  0.00     0.084 H 
ENDROOT
BRANCH   5  10
ATOM     10  C8  <0> d           1.082   3.547  -0.514  0.00  0.00    -0.033 C 
ATOM     11  H9  <0> d           2.095   3.943  -0.580  0.00  0.00     0.046 H 
BRANCH  10  12
ATOM     12  C9  <0> d           0.348   3.802  -1.833  0.00  0.00    -0.069 C 
ATOM     13  H10 <0> d           0.880   3.307  -2.646  0.00  0.00     0.028 H 
ATOM     14  H11 <0> d          -0.665   3.407  -1.767  0.00  0.00     0.028 H 
ATOM     15  H12 <0> d           0.308   4.875  -2.025  0.00  0.00     0.028 H 
ENDBRANCH  10  12
BRANCH  10  16
ATOM     16  C10 <0> d           0.336   4.242   0.627  0.00  0.00    -0.069 C 
ATOM     17  H13 <0> d           0.858   4.060   1.566  0.00  0.00     0.028 H 
ATOM     18  H14 <0> d           0.295   5.314   0.435  0.00  0.00     0.028 H 
ATOM     19  H15 <0> d          -0.678   3.846   0.692  0.00  0.00     0.028 H 
ENDBRANCH  10  16
ENDBRANCH   5  10
BRANCH   6  20
ATOM     20  N1  <0> d           3.533   2.201   0.007  0.00  0.00    -0.398 N 
ATOM     21  H7  <0> d           4.393   1.757   0.084  0.00  0.00     0.156 HD
ATOM     22  H8  <0> d           3.491   3.167  -0.066  0.00  0.00     0.156 HD
ENDBRANCH   6  20
BRANCH   1  23
ATOM     23  C1  <0> d           3.724  -0.592   0.516  0.00  0.00    -0.049 C 
ATOM     24  H1  <0> d           4.160  -0.929  -0.425  0.00  0.00     0.033 H 
ATOM     25  H2  <0> d           4.401   0.116   0.996  0.00  0.00     0.033 H 
ATOM     26  H3  <0> d           3.568  -1.448   1.172  0.00  0.00     0.033 H 
ENDBRANCH   1  23
TORSDOF 5
