REMARK  4 active torsions:
REMARK  status: ('A' for Active; 'I' for Inactive)
REMARK    1  A    between atoms: C1_1  and  C2_2 
REMARK    2  A    between atoms: C2_2  and  C3_3 
REMARK    3  A    between atoms: C2_2  and  N2_6 
REMARK    4  A    between atoms: N2_6  and  C5_7 
ROOT
ATOM      1  C2  <0> d           1.353   1.550  -0.003  0.00  0.00     0.236 C 
ATOM      2  C4  <0> d           2.107   1.006   1.139  0.00  0.00     0.100 C 
ATOM      3  N1  <0> d           2.689   0.586   2.019  0.00  0.00    -0.195 NA
ENDROOT
BRANCH   1   4
ATOM      4  C1  <0> d           2.049   1.158  -1.307  0.00  0.00    -0.031 C 
ATOM      5  H1  <0> d           2.091   0.061  -1.385  0.00  0.00     0.032 H 
ATOM      6  H2  <0> d           3.070   1.566  -1.315  0.00  0.00     0.032 H 
ATOM      7  H3  <0> d           1.485   1.564  -2.160  0.00  0.00     0.032 H 
ENDBRANCH   1   4
BRANCH   1   8
ATOM      8  C3  <0> d           1.293   3.075   0.106  0.00  0.00    -0.031 C 
ATOM      9  H4  <0> d           0.793   3.357   1.044  0.00  0.00     0.032 H 
ATOM     10  H5  <0> d           0.730   3.481  -0.747  0.00  0.00     0.032 H 
ATOM     11  H6  <0> d           2.315   3.483   0.098  0.00  0.00     0.032 H 
ENDBRANCH   1   8
BRANCH   1  12
ATOM     12  N2  <0> d          -0.012   1.005   0.008  0.00  0.00     0.102 N 
ATOM     13  H7  <0> d           0.031  -0.092  -0.070  0.00  0.00     0.317 HD
BRANCH  12  14
ATOM     14  C5  <0> d          -0.795   1.527  -1.120  0.00  0.00     0.095 C 
ATOM     15  H8  <0> d          -1.810   1.103  -1.088  0.00  0.00     0.071 H 
ATOM     16  H9  <0> d          -0.310   1.245  -2.066  0.00  0.00     0.071 H 
ATOM     17  H10 <0> d          -0.853   2.623  -1.050  0.00  0.00     0.071 H 
ENDBRANCH  12  14
ENDBRANCH   1  12
TORSDOF 4
