REMARK  3 active torsions:
REMARK  status: ('A' for Active; 'I' for Inactive)
REMARK    1  A    between atoms: C1_1  and  C2_2 
REMARK    2  A    between atoms: C2_2  and  C3_4 
REMARK    3  A    between atoms: C5_7  and  C7_12 
ROOT
ATOM      1  C3  <0> d          -0.000  -0.750  -1.307  0.00  0.00     0.090 C 
ATOM      2  H1  <0> d          -0.515  -0.173  -2.075  0.00  0.00     0.067 H 
ATOM      3  C4  <0> d          -0.662  -2.142  -1.139  0.00  0.00    -0.019 C 
ATOM      4  C5  <0> d           0.303  -3.024  -1.976  0.00  0.00     0.065 C 
ATOM      5  H2  <0> d           0.045  -2.982  -3.034  0.00  0.00     0.090 H 
ATOM      6  O2  <0> d           1.585  -2.407  -1.736  0.00  0.00    -0.311 OA
ATOM      7  C6  <0> d           1.418  -1.067  -1.742  0.00  0.00     0.271 C 
ATOM      8  O3  <0> d           2.259  -0.253  -2.042  0.00  0.00    -0.264 OA
ATOM      9  H6  <0> d          -0.670  -2.450  -0.093  0.00  0.00     0.039 H 
ATOM     10  H7  <0> d          -1.668  -2.152  -1.558  0.00  0.00     0.039 H 
ENDROOT
BRANCH   1  11
ATOM     11  C2  <0> d           0.002  -0.004   0.002  0.00  0.00     0.136 C 
ATOM     12  O1  <0> d           0.020  -0.613   1.044  0.00  0.00    -0.297 OA
BRANCH  11  13
ATOM     13  C1  <0> d          -0.018   1.503   0.010  0.00  0.00    -0.020 C 
ATOM     14  H3  <0> d           1.004   1.880   0.003  0.00  0.00     0.037 H 
ATOM     15  H4  <0> d          -0.545   1.864  -0.873  0.00  0.00     0.037 H 
ATOM     16  H5  <0> d          -0.529   1.854   0.907  0.00  0.00     0.037 H 
ENDBRANCH  11  13
ENDBRANCH   1  11
BRANCH   4  17
ATOM     17  C7  <0> d           0.290  -4.448  -1.481  0.00  0.00    -0.084 C 
ATOM     18  C8  <0> d          -0.068  -5.418  -2.285  0.00  0.00    -0.122 C 
ATOM     19  H9  <0> d          -0.354  -5.197  -3.303  0.00  0.00     0.066 H 
ATOM     20  H10 <0> d          -0.077  -6.438  -1.931  0.00  0.00     0.066 H 
ATOM     21  H8  <0> d           0.576  -4.668  -0.463  0.00  0.00     0.079 H 
ENDBRANCH   4  17
TORSDOF 3
