REMARK  3 active torsions:
REMARK  status: ('A' for Active; 'I' for Inactive)
REMARK    1  A    between atoms: C1_1  and  C2_2 
REMARK    2  A    between atoms: C2_2  and  O1_3 
REMARK    3  A    between atoms: O1_3  and  C3_4 
ROOT
ATOM      1  C3  <0> d          -0.754   1.594  -1.233  0.00  0.00     0.095 C 
ATOM      2  H1  <0> d          -0.696   2.591  -1.278  0.00  0.00     0.095 H 
ATOM      3  C4  <0> d          -0.013   1.086   0.008  0.00  0.00    -0.034 C 
ATOM      4  C5  <0> d          -0.729   1.579   1.266  0.00  0.00    -0.062 C 
ATOM      5  C6  <0> d          -2.136   0.982   1.329  0.00  0.00    -0.059 C 
ATOM      6  C7  <0> d          -2.958   1.486   0.138  0.00  0.00    -0.007 C 
ATOM      7  C8  <0> d          -2.203   1.170  -1.134  0.00  0.00     0.155 C 
ATOM      8  O2  <0> d          -2.744   0.594  -2.048  0.00  0.00    -0.295 OA
ATOM      9  H7  <0> d           0.002  -0.004   0.002  0.00  0.00     0.037 H 
ATOM     10  H8  <0> d           1.010   1.463   0.000  0.00  0.00     0.037 H 
ATOM     11  H9  <0> d          -0.165   1.274   2.147  0.00  0.00     0.033 H 
ATOM     12  H10 <0> d          -0.798   2.667   1.240  0.00  0.00     0.033 H 
ATOM     13  H11 <0> d          -2.619   1.286   2.258  0.00  0.00     0.033 H 
ATOM     14  H12 <0> d          -2.071  -0.106   1.292  0.00  0.00     0.033 H 
ATOM     15  H13 <0> d          -3.093   2.473   0.221  0.00  0.00     0.044 H 
ATOM     16  H14 <0> d          -3.926   0.985   0.123  0.00  0.00     0.044 H 
ENDROOT
BRANCH   1  17
ATOM     17  O1  <0> d          -0.168   1.029  -2.407  0.00  0.00    -0.379 OA
BRANCH  17  18
ATOM     18  C2  <0> d          -0.265   1.862  -3.564  0.00  0.00     0.017 C 
ATOM     19  H5  <0> d          -1.315   2.052  -3.788  0.00  0.00     0.073 H 
ATOM     20  H6  <0> d           0.242   2.808  -3.374  0.00  0.00     0.073 H 
BRANCH  18  21
ATOM     21  C1  <0> d           0.392   1.161  -4.755  0.00  0.00    -0.056 C 
ATOM     22  H2  <0> d          -0.116   0.215  -4.944  0.00  0.00     0.030 H 
ATOM     23  H3  <0> d           0.318   1.796  -5.637  0.00  0.00     0.030 H 
ATOM     24  H4  <0> d           1.442   0.971  -4.530  0.00  0.00     0.030 H 
ENDBRANCH  18  21
ENDBRANCH  17  18
ENDBRANCH   1  17
TORSDOF 3
