REMARK  2 active torsions:
REMARK  status: ('A' for Active; 'I' for Inactive)
REMARK    1  A    between atoms: C1_1  and  C2_2 
REMARK    2  A    between atoms: C4_4  and  C8_10 
ROOT
ATOM      1  C2  <0> d           1.172   1.791   0.001  0.00  0.00    -0.038 A 
ATOM      2  C3  <0> d          -0.013   1.076   0.008  0.00  0.00    -0.052 A 
ATOM      3  C4  <0> d          -1.216   1.758   0.017  0.00  0.00     0.031 A 
ATOM      4  N1  <0> d          -1.251   3.077   0.031  0.00  0.00    -0.264 NA
ATOM      5  C5  <0> d          -0.152   3.802   0.024  0.00  0.00     0.023 A 
ATOM      6  C6  <0> d           1.103   3.190   0.009  0.00  0.00     0.068 A 
ATOM      7  C7  <0> d           2.298   3.978   0.002  0.00  0.00     0.101 C 
ATOM      8  N2  <0> d           3.247   4.604  -0.003  0.00  0.00    -0.191 NA
ATOM      9  H4  <0> d           0.002  -0.004   0.002  0.00  0.00     0.087 H 
ATOM     10  H5  <0> d          -0.221   4.880   0.030  0.00  0.00     0.117 H 
ENDROOT
BRANCH   1  11
ATOM     11  C1  <0> d           2.502   1.083  -0.016  0.00  0.00    -0.050 C 
ATOM     12  H1  <0> d           2.813   0.918  -1.047  0.00  0.00     0.033 H 
ATOM     13  H2  <0> d           3.246   1.696   0.494  0.00  0.00     0.033 H 
ATOM     14  H3  <0> d           2.410   0.124   0.494  0.00  0.00     0.033 H 
ENDBRANCH   1  11
BRANCH   3  15
ATOM     15  C8  <0> d          -2.508   0.983   0.019  0.00  0.00    -0.035 C 
ATOM     16  H6  <0> d          -2.814   0.789   1.047  0.00  0.00     0.035 H 
ATOM     17  H7  <0> d          -3.280   1.561  -0.488  0.00  0.00     0.035 H 
ATOM     18  H8  <0> d          -2.363   0.035  -0.501  0.00  0.00     0.035 H 
ENDBRANCH   3  15
TORSDOF 2
