REMARK  2 active torsions:
REMARK  status: ('A' for Active; 'I' for Inactive)
REMARK    1  A    between atoms: C1_1  and  C2_2 
REMARK    2  A    between atoms: C4_5  and  N3_9 
ROOT
ATOM      1  C2  <0> d           3.040   2.361   1.140  0.00  0.00     0.105 A 
ATOM      2  N1  <0> d           3.671   2.663   0.023  0.00  0.00    -0.321 N 
ATOM      3  C3  <0> d           3.118   2.419  -1.161  0.00  0.00     0.211 A 
ATOM      4  C4  <0> d           1.852   1.835  -1.208  0.00  0.00     0.137 A 
ATOM      5  C5  <0> d           1.221   1.531  -0.001  0.00  0.00     0.233 A 
ATOM      6  N2  <0> d           1.842   1.813   1.139  0.00  0.00    -0.207 NA
ATOM      7  O1  <0> d          -0.011   0.963   0.007  0.00  0.00    -0.167 OA
ATOM      8  O2  <0> d           3.774   2.734  -2.305  0.00  0.00    -0.169 OA
ATOM      9  H6  <0> d           4.669   3.124   0.062  0.00  0.00     0.169 HD
ENDROOT
BRANCH   1  10
ATOM     10  C1  <0> d           3.707   2.657   2.459  0.00  0.00    -0.021 C 
ATOM     11  H1  <0> d           4.694   3.109   2.277  0.00  0.00     0.037 H 
ATOM     12  H2  <0> d           3.831   1.722   3.025  0.00  0.00     0.037 H 
ATOM     13  H3  <0> d           3.084   3.355   3.036  0.00  0.00     0.037 H 
ENDBRANCH   1  10
BRANCH   4  14
ATOM     14  N3  <0> d           1.231   1.560  -2.436  0.00  0.00    -0.392 N 
ATOM     15  H4  <0> d           0.232   1.099  -2.456  0.00  0.00     0.156 HD
ATOM     16  H5  <0> d           1.742   1.805  -3.378  0.00  0.00     0.156 HD
ENDBRANCH   4  14
TORSDOF 2
