REMARK  2 active torsions:
REMARK  status: ('A' for Active; 'I' for Inactive)
REMARK    1  A    between atoms: C1_1  and  C2_2 
REMARK    2  A    between atoms: C2_2  and  C3_3 
ROOT
ATOM      1  C3  <0> d          -1.291   3.106   0.031  0.00  0.00    -0.046 A 
ATOM      2  C4  <0> d          -1.235   1.745   0.018  0.00  0.00    -0.076 A 
ATOM      3  C5  <0> d          -0.013   1.076   0.008  0.00  0.00    -0.082 A 
ATOM      4  C6  <0> d           1.164   1.763   0.000  0.00  0.00    -0.072 A 
ATOM      5  C7  <0> d           1.145   3.164   0.008  0.00  0.00    -0.023 A 
ATOM      6  C8  <0> d          -0.099   3.847   0.024  0.00  0.00    -0.002 A 
ATOM      7  C9  <0> d          -0.095   5.252   0.030  0.00  0.00     0.013 A 
ATOM      8  N1  <0> d           1.046   5.902   0.022  0.00  0.00    -0.272 NA
ATOM      9  C10 <0> d           2.221   5.289   0.008  0.00  0.00     0.003 A 
ATOM     10  C11 <0> d           2.325   3.931   0.000  0.00  0.00    -0.055 A 
ATOM     11  H6  <0> d          -2.152   1.176   0.018  0.00  0.00     0.084 H 
ATOM     12  H7  <0> d           0.002  -0.004   0.002  0.00  0.00     0.083 H 
ATOM     13  H8  <0> d           2.104   1.231  -0.012  0.00  0.00     0.084 H 
ATOM     14  H9  <0> d          -1.027   5.796   0.042  0.00  0.00     0.116 H 
ATOM     15  H10 <0> d           3.123   5.883   0.003  0.00  0.00     0.114 H 
ATOM     16  H11 <0> d           3.293   3.452  -0.011  0.00  0.00     0.087 H 
ENDROOT
BRANCH   1  17
ATOM     17  C2  <0> d          -2.623   3.810   0.048  0.00  0.00    -0.043 C 
ATOM     18  H4  <0> d          -2.544   4.730   0.647  0.00  0.00     0.039 H 
ATOM     19  H5  <0> d          -3.382   3.149   0.490  0.00  0.00     0.039 H 
BRANCH  17  20
ATOM     20  C1  <0> d          -3.029   4.168  -1.384  0.00  0.00    -0.073 C 
ATOM     21  H1  <0> d          -4.001   4.682  -1.372  0.00  0.00     0.028 H 
ATOM     22  H2  <0> d          -3.107   3.248  -1.983  0.00  0.00     0.028 H 
ATOM     23  H3  <0> d          -2.269   4.830  -1.826  0.00  0.00     0.028 H 
ENDBRANCH  17  20
ENDBRANCH   1  17
TORSDOF 2
