REMARK  5 active torsions:
REMARK  status: ('A' for Active; 'I' for Inactive)
REMARK    1  A    between atoms: C1_1  and  C2_2 
REMARK    2  A    between atoms: N1_5  and  C5_7 
REMARK    3  A    between atoms: C5_7  and  C6_8 
REMARK    4  A    between atoms: C6_8  and  C7_9 
REMARK    5  A    between atoms: C6_8  and  C8_10 
ROOT
ATOM      1  C5  <0> d           1.468   4.364   0.011  0.00  0.00     0.019 C 
ATOM      2  H6  <0> d           1.329   4.905   0.947  0.00  0.00     0.067 H 
ATOM      3  H7  <0> d           2.514   4.077  -0.090  0.00  0.00     0.067 H 
ENDROOT
BRANCH   1   4
ATOM      4  N1  <0> d           0.630   3.162   0.013  0.00  0.00    -0.280 N 
ATOM      5  C4  <0> d           1.071   1.887   0.002  0.00  0.00     0.000 A 
ATOM      6  C3  <0> d          -0.013   1.076   0.008  0.00  0.00    -0.041 A 
ATOM      7  H5  <0> d           2.103   1.570  -0.010  0.00  0.00     0.114 H 
ATOM      8  C2  <0> d          -1.155   1.883   0.017  0.00  0.00     0.052 A 
ATOM      9  H4  <0> d           0.002  -0.004   0.002  0.00  0.00     0.088 H 
ATOM     10  N2  <0> d          -0.771   3.134   0.026  0.00  0.00    -0.178 NA
BRANCH   8  11
ATOM     11  C1  <0> d          -2.581   1.397   0.020  0.00  0.00    -0.034 C 
ATOM     12  H1  <0> d          -2.921   1.274   1.049  0.00  0.00     0.035 H 
ATOM     13  H2  <0> d          -3.214   2.124  -0.487  0.00  0.00     0.035 H 
ATOM     14  H3  <0> d          -2.639   0.440  -0.498  0.00  0.00     0.035 H 
ENDBRANCH   8  11
ENDBRANCH   1   4
BRANCH   1  15
ATOM     15  C6  <0> d           1.069   5.262  -1.162  0.00  0.00    -0.044 C 
ATOM     16  H8  <0> d           1.123   4.692  -2.090  0.00  0.00     0.041 H 
BRANCH  15  17
ATOM     17  C7  <0> d          -0.361   5.766  -0.956  0.00  0.00    -0.072 C 
ATOM     18  H9  <0> d          -1.041   4.916  -0.901  0.00  0.00     0.028 H 
ATOM     19  H10 <0> d          -0.415   6.335  -0.028  0.00  0.00     0.028 H 
ATOM     20  H11 <0> d          -0.645   6.405  -1.791  0.00  0.00     0.028 H 
ENDBRANCH  15  17
BRANCH  15  21
ATOM     21  C8  <0> d           2.024   6.454  -1.239  0.00  0.00    -0.072 C 
ATOM     22  H12 <0> d           3.043   6.095  -1.386  0.00  0.00     0.028 H 
ATOM     23  H13 <0> d           1.740   7.094  -2.075  0.00  0.00     0.028 H 
ATOM     24  H14 <0> d           1.970   7.024  -0.311  0.00  0.00     0.028 H 
ENDBRANCH  15  21
ENDBRANCH   1  15
TORSDOF 5
