REMARK  0 active torsions:
REMARK  status: ('A' for Active; 'I' for Inactive)
ROOT
ATOM      1  C1  <0> d           3.906   0.160  -0.035  0.00  0.00    -0.082 A 
ATOM      2  C2  <0> d           3.867   1.543  -0.027  0.00  0.00    -0.082 A 
ATOM      3  C3  <0> d           2.657   2.203  -0.012  0.00  0.00    -0.069 A 
ATOM      4  C4  <0> d           1.461   1.475  -0.004  0.00  0.00     0.017 A 
ATOM      5  C5  <0> d           1.512   0.072  -0.012  0.00  0.00    -0.037 A 
ATOM      6  C6  <0> d           2.731  -0.571  -0.027  0.00  0.00    -0.075 A 
ATOM      7  C7  <0> d           0.002  -0.004   0.002  0.00  0.00     0.020 A 
ATOM      8  C8  <0> d          -0.018   1.507   0.010  0.00  0.00     0.164 A 
ATOM      9  O1  <0> d          -0.872   2.368   0.019  0.00  0.00    -0.292 OA
ATOM     10  H1  <0> d           4.857  -0.352  -0.047  0.00  0.00     0.083 H 
ATOM     11  H2  <0> d           4.787   2.108  -0.034  0.00  0.00     0.083 H 
ATOM     12  H3  <0> d           2.632   3.283  -0.006  0.00  0.00     0.085 H 
ATOM     13  H4  <0> d           2.769  -1.650  -0.033  0.00  0.00     0.084 H 
ATOM     14  H5  <0> d          -0.298  -0.533   0.796  0.00  0.00     0.052 H 
ATOM     15  H6  <0> d          -0.420  -0.439  -0.904  0.00  0.00     0.052 H 
ENDROOT
TORSDOF 0
