REMARK  2 active torsions:
REMARK  status: ('A' for Active; 'I' for Inactive)
REMARK    1  A    between atoms: C4_4  and  C7_7 
REMARK    2  A    between atoms: C7_7  and  N1_8 
REMARK       I    between atoms: N1_8  and  C8_9 
ROOT
ATOM      1  C1  <0> d          -0.019   1.526   0.010  0.00  0.00    -0.065 C 
ATOM      2  C2  <0> d           1.417   2.055  -0.000  0.00  0.00    -0.065 C 
ATOM      3  C3  <0> d           2.157   1.548   1.239  0.00  0.00    -0.060 C 
ATOM      4  C4  <0> d           2.178   0.019   1.231  0.00  0.00    -0.039 C 
ATOM      5  C5  <0> d           0.742  -0.511   1.242  0.00  0.00    -0.060 C 
ATOM      6  C6  <0> d           0.002  -0.004   0.002  0.00  0.00    -0.065 C 
ATOM      7  H1  <0> d          -0.529   1.877   0.907  0.00  0.00     0.033 H 
ATOM      8  H2  <0> d          -0.546   1.887  -0.873  0.00  0.00     0.033 H 
ATOM      9  H3  <0> d           1.927   1.704  -0.897  0.00  0.00     0.033 H 
ATOM     10  H4  <0> d           1.402   3.145   0.006  0.00  0.00     0.033 H 
ATOM     11  H5  <0> d           3.179   1.926   1.231  0.00  0.00     0.033 H 
ATOM     12  H6  <0> d           1.647   1.900   2.136  0.00  0.00     0.033 H 
ATOM     13  H7  <0> d           2.688  -0.333   0.334  0.00  0.00     0.042 H 
ATOM     14  H8  <0> d           0.757  -1.601   1.236  0.00  0.00     0.033 H 
ATOM     15  H9  <0> d           0.232  -0.159   2.138  0.00  0.00     0.033 H 
ATOM     16  H10 <0> d          -1.020  -0.381   0.010  0.00  0.00     0.033 H 
ATOM     17  H11 <0> d           0.512  -0.356  -0.895  0.00  0.00     0.033 H 
ENDROOT
BRANCH   4  18
ATOM     18  C7  <0> d           2.917  -0.488   2.470  0.00  0.00     0.001 C 
ATOM     19  H12 <0> d           3.910  -0.040   2.509  0.00  0.00     0.064 H 
ATOM     20  H13 <0> d           2.359  -0.212   3.365  0.00  0.00     0.064 H 
BRANCH  18  21
ATOM     21  N1  <0> d           3.042  -1.946   2.402  0.00  0.00    -0.335 N 
ATOM     22  C8  <0> d           3.663  -2.616   3.393  0.00  0.00     0.283 C 
ATOM     23  O1  <0> d           4.122  -2.007   4.349  0.00  0.00    -0.630 OA
ATOM     24  O2  <0> d           3.767  -3.834   3.337  0.00  0.00    -0.630 OA
ATOM     25  H14 <0> d           2.677  -2.429   1.645  0.00  0.00     0.165 HD
ENDBRANCH  18  21
ENDBRANCH   4  18
TORSDOF 2
