REMARK  1 active torsions:
REMARK  status: ('A' for Active; 'I' for Inactive)
REMARK    1  A    between atoms: C2_2  and  C3_3 
ROOT
ATOM      1  C1  <0> d           0.018  -1.178  -0.004  0.00  0.00    -0.149 C 
ATOM      2  C2  <0> d           0.002  -0.004   0.002  0.00  0.00    -0.083 C 
ATOM      3  H1  <0> d           0.032  -2.228  -0.010  0.00  0.00     0.166 H 
ENDROOT
BRANCH   2   4
ATOM      4  C3  <0> d          -0.017   1.428   0.010  0.00  0.00    -0.009 C 
ATOM      5  C7  <0> d           1.214   2.303   0.003  0.00  0.00    -0.034 C 
ATOM      6  C6  <0> d           0.714   3.697   0.439  0.00  0.00    -0.058 C 
ATOM      7  H7  <0> d           1.952   1.925   0.711  0.00  0.00     0.041 H 
ATOM      8  H8  <0> d           1.639   2.352  -1.000  0.00  0.00     0.041 H 
ATOM      9  C5  <0> d          -0.776   3.637   0.034  0.00  0.00    -0.048 C 
ATOM     10  H5  <0> d           1.234   4.488  -0.101  0.00  0.00     0.033 H 
ATOM     11  H6  <0> d           0.821   3.827   1.516  0.00  0.00     0.033 H 
ATOM     12  C4  <0> d          -1.118   2.165   0.030  0.00  0.00    -0.089 C 
ATOM     13  H3  <0> d          -0.916   4.062  -0.961  0.00  0.00     0.038 H 
ATOM     14  H4  <0> d          -1.389   4.167   0.763  0.00  0.00     0.038 H 
ATOM     15  H2  <0> d          -2.122   1.768   0.042  0.00  0.00     0.078 H 
ENDBRANCH   2   4
TORSDOF 1
