REMARK  2 active torsions:
REMARK  status: ('A' for Active; 'I' for Inactive)
REMARK    1  A    between atoms: C1_1  and  C2_2 
REMARK    2  A    between atoms: C4_5  and  C11_12 
ROOT
ATOM      1  C2  <0> d          -0.049   5.252   0.028  0.00  0.00    -0.033 A 
ATOM      2  C3  <0> d          -1.265   5.864   0.042  0.00  0.00     0.009 A 
ATOM      3  N1  <0> d          -2.397   5.173   0.049  0.00  0.00    -0.265 NA
ATOM      4  C4  <0> d          -2.428   3.861   0.044  0.00  0.00     0.041 A 
ATOM      5  C5  <0> d          -1.228   3.133   0.030  0.00  0.00    -0.001 A 
ATOM      6  C6  <0> d          -0.001   3.846   0.021  0.00  0.00    -0.017 A 
ATOM      7  C7  <0> d           1.210   3.140   0.006  0.00  0.00    -0.072 A 
ATOM      8  C8  <0> d           1.192   1.778   0.000  0.00  0.00    -0.082 A 
ATOM      9  C9  <0> d          -0.013   1.076   0.008  0.00  0.00    -0.082 A 
ATOM     10  C10 <0> d          -1.207   1.729   0.017  0.00  0.00    -0.070 A 
ATOM     11  H4  <0> d          -1.310   6.943   0.047  0.00  0.00     0.115 H 
ATOM     12  H5  <0> d           2.151   3.671  -0.000  0.00  0.00     0.084 H 
ATOM     13  H6  <0> d           2.124   1.233  -0.011  0.00  0.00     0.083 H 
ATOM     14  H7  <0> d           0.002  -0.004   0.002  0.00  0.00     0.083 H 
ATOM     15  H8  <0> d          -2.132   1.172   0.019  0.00  0.00     0.084 H 
ENDROOT
BRANCH   1  16
ATOM     16  C1  <0> d           1.220   6.065   0.020  0.00  0.00    -0.049 C 
ATOM     17  H1  <0> d           1.517   6.265  -1.010  0.00  0.00     0.033 H 
ATOM     18  H2  <0> d           1.051   7.008   0.539  0.00  0.00     0.033 H 
ATOM     19  H3  <0> d           2.011   5.509   0.524  0.00  0.00     0.033 H 
ENDBRANCH   1  16
BRANCH   4  20
ATOM     20  C11 <0> d          -3.750   3.137   0.052  0.00  0.00    -0.035 C 
ATOM     21  H9  <0> d          -4.077   2.967  -0.974  0.00  0.00     0.035 H 
ATOM     22  H10 <0> d          -3.637   2.180   0.561  0.00  0.00     0.035 H 
ATOM     23  H11 <0> d          -4.491   3.741   0.575  0.00  0.00     0.035 H 
ENDBRANCH   4  20
TORSDOF 2
