REMARK  0 active torsions:
REMARK  status: ('A' for Active; 'I' for Inactive)
ROOT
ATOM      1  C1  <0> d          -0.016   1.298   0.009  0.00  0.00     0.047 A 
ATOM      2  C2  <0> d           1.336   1.715  -0.002  0.00  0.00     0.054 A 
ATOM      3  C3  <0> d           2.037   0.556  -0.014  0.00  0.00     0.062 A 
ATOM      4  O1  <0> d           1.132  -0.434  -0.011  0.00  0.00    -0.225 OA
ATOM      5  N1  <0> d           0.002  -0.004   0.002  0.00  0.00    -0.140 NA
ATOM      6 Br1  <0> d           2.008   3.483   0.001  0.00  0.00    -0.047 Br
ATOM      7  H1  <0> d          -0.889   1.933   0.017  0.00  0.00     0.120 H 
ATOM      8  H2  <0> d           3.111   0.450  -0.025  0.00  0.00     0.129 H 
ENDROOT
TORSDOF 0
