REMARK  8 active torsions:
REMARK  status: ('A' for Active; 'I' for Inactive)
REMARK    1  A    between atoms: C1_1  and  C2_2 
REMARK    2  A    between atoms: C2_2  and  C3_3 
REMARK    3  A    between atoms: C3_3  and  C4_4 
REMARK    4  A    between atoms: C4_4  and  C5_5 
REMARK    5  A    between atoms: C5_5  and  C6_6 
REMARK    6  A    between atoms: C6_6  and  C7_7 
REMARK    7  A    between atoms: C6_6  and  C8_8 
REMARK    8  A    between atoms: C6_6  and  O1_9 
ROOT
ATOM      1  C5  <0> d          -0.733   1.918   1.269  0.00  0.00    -0.037 C 
ATOM      2  H10 <0> d          -0.827   3.004   1.232  0.00  0.00     0.037 H 
ATOM      3  H11 <0> d          -1.726   1.470   1.322  0.00  0.00     0.037 H 
ENDROOT
BRANCH   1   4
ATOM      4  C4  <0> d           0.074   1.518   2.505  0.00  0.00    -0.062 C 
ATOM      5  H8  <0> d           0.167   0.432   2.542  0.00  0.00     0.033 H 
ATOM      6  H9  <0> d           1.066   1.966   2.452  0.00  0.00     0.033 H 
BRANCH   4   7
ATOM      7  C3  <0> d          -0.642   2.011   3.764  0.00  0.00    -0.065 C 
ATOM      8  H6  <0> d          -0.736   3.096   3.727  0.00  0.00     0.033 H 
ATOM      9  H7  <0> d          -1.634   1.563   3.817  0.00  0.00     0.033 H 
BRANCH   7  10
ATOM     10  C2  <0> d           0.165   1.610   5.000  0.00  0.00    -0.069 C 
ATOM     11  H4  <0> d           0.259   0.525   5.037  0.00  0.00     0.032 H 
ATOM     12  H5  <0> d           1.157   2.059   4.947  0.00  0.00     0.032 H 
BRANCH  10  13
ATOM     13  C1  <0> d          -0.551   2.104   6.259  0.00  0.00    -0.077 C 
ATOM     14  H1  <0> d          -1.543   1.655   6.312  0.00  0.00     0.027 H 
ATOM     15  H2  <0> d           0.024   1.818   7.140  0.00  0.00     0.027 H 
ATOM     16  H3  <0> d          -0.644   3.189   6.222  0.00  0.00     0.027 H 
ENDBRANCH  10  13
ENDBRANCH   7  10
ENDBRANCH   4   7
ENDBRANCH   1   4
BRANCH   1  17
ATOM     17  C6  <0> d          -0.017   1.425   0.010  0.00  0.00     0.051 C 
BRANCH  17  18
ATOM     18  C7  <0> d           1.418   1.954  -0.001  0.00  0.00    -0.048 C 
ATOM     19  H12 <0> d           1.928   1.603  -0.898  0.00  0.00     0.031 H 
ATOM     20  H13 <0> d           1.403   3.044   0.005  0.00  0.00     0.031 H 
ATOM     21  H14 <0> d           1.945   1.593   0.882  0.00  0.00     0.031 H 
ENDBRANCH  17  18
BRANCH  17  22
ATOM     22  C8  <0> d          -0.757   1.932  -1.230  0.00  0.00    -0.048 C 
ATOM     23  H15 <0> d          -1.780   1.554  -1.222  0.00  0.00     0.031 H 
ATOM     24  H16 <0> d          -0.772   3.022  -1.224  0.00  0.00     0.031 H 
ATOM     25  H17 <0> d          -0.247   1.580  -2.126  0.00  0.00     0.031 H 
ENDBRANCH  17  22
BRANCH  17  26
ATOM     26  O1  <0> d           0.002  -0.004   0.002  0.00  0.00    -0.391 OA
ATOM     27  H18 <0> d          -0.876  -0.409   0.008  0.00  0.00     0.210 HD
ENDBRANCH  17  26
ENDBRANCH   1  17
TORSDOF 8
