REMARK  0 active torsions:
REMARK  status: ('A' for Active; 'I' for Inactive)
ROOT
ATOM      1  C1  <0> d          -1.220   1.749   0.017  0.00  0.00    -0.059 A 
ATOM      2  C2  <0> d          -0.013   1.076   0.008  0.00  0.00    -0.043 A 
ATOM      3  C3  <0> d           1.176   1.782   0.000  0.00  0.00     0.137 A 
ATOM      4  C4  <0> d           1.154   3.181   0.008  0.00  0.00     0.084 A 
ATOM      5  C5  <0> d          -0.070   3.853   0.022  0.00  0.00    -0.039 A 
ATOM      6  C6  <0> d          -1.248   3.134   0.030  0.00  0.00     0.035 A 
ATOM      7 Cl1  <0> d          -2.771   3.968   0.048  0.00  0.00    -0.084 Cl
ATOM      8  C7  <0> d           2.381   3.920   0.000  0.00  0.00     0.102 C 
ATOM      9  N1  <0> d           3.353   4.506  -0.005  0.00  0.00    -0.191 NA
ATOM     10  F1  <0> d           2.355   1.123  -0.014  0.00  0.00    -0.204 F 
ATOM     11  H1  <0> d          -2.146   1.193   0.019  0.00  0.00     0.086 H 
ATOM     12  H2  <0> d           0.002  -0.004   0.002  0.00  0.00     0.088 H 
ATOM     13  H3  <0> d          -0.095   4.932   0.028  0.00  0.00     0.088 H 
ENDROOT
TORSDOF 0
