REMARK  6 active torsions:
REMARK  status: ('A' for Active; 'I' for Inactive)
REMARK    1  A    between atoms: C1_1  and  C2_2 
REMARK    2  A    between atoms: C2_2  and  N1_3 
REMARK    3  A    between atoms: N1_3  and  S1_4 
REMARK    4  A    between atoms: S1_4  and  N2_7 
REMARK    5  A    between atoms: N2_7  and  C3_8 
REMARK    6  A    between atoms: C3_8  and  C4_9 
ROOT
ATOM      1  S1  <0> d          -0.017   1.417   0.010  0.00  0.00     0.314 S 
ATOM      2  O1  <0> d           0.002  -0.004   0.002  0.00  0.00    -0.183 OA
ATOM      3  O2  <0> d           1.172   2.195   0.003  0.00  0.00    -0.183 OA
ENDROOT
BRANCH   1   4
ATOM      4  N1  <0> d          -0.897   1.885  -1.312  0.00  0.00    -0.303 N 
ATOM      5  H6  <0> d          -1.263   1.218  -1.913  0.00  0.00     0.173 HD
BRANCH   4   6
ATOM      6  C2  <0> d          -1.125   3.309  -1.574  0.00  0.00     0.001 C 
ATOM      7  H4  <0> d          -1.873   3.691  -0.879  0.00  0.00     0.064 H 
ATOM      8  H5  <0> d          -0.192   3.856  -1.440  0.00  0.00     0.064 H 
BRANCH   6   9
ATOM      9  C1  <0> d          -1.622   3.491  -3.009  0.00  0.00    -0.061 C 
ATOM     10  H1  <0> d          -2.555   2.943  -3.143  0.00  0.00     0.029 H 
ATOM     11  H2  <0> d          -1.791   4.550  -3.204  0.00  0.00     0.029 H 
ATOM     12  H3  <0> d          -0.874   3.108  -3.704  0.00  0.00     0.029 H 
ENDBRANCH   6   9
ENDBRANCH   4   6
ENDBRANCH   1   4
BRANCH   1  13
ATOM     13  N2  <0> d          -0.872   1.871   1.353  0.00  0.00    -0.303 N 
ATOM     14  H7  <0> d          -0.510   2.541   1.955  0.00  0.00     0.173 HD
BRANCH  13  15
ATOM     15  C3  <0> d          -2.174   1.261   1.634  0.00  0.00     0.001 C 
ATOM     16  H8  <0> d          -2.922   1.675   0.958  0.00  0.00     0.064 H 
ATOM     17  H9  <0> d          -2.110   0.183   1.488  0.00  0.00     0.064 H 
BRANCH  15  18
ATOM     18  C4  <0> d          -2.575   1.557   3.081  0.00  0.00    -0.061 C 
ATOM     19  H10 <0> d          -1.827   1.143   3.757  0.00  0.00     0.029 H 
ATOM     20  H11 <0> d          -2.639   2.635   3.227  0.00  0.00     0.029 H 
ATOM     21  H12 <0> d          -3.544   1.103   3.289  0.00  0.00     0.029 H 
ENDBRANCH  15  18
ENDBRANCH  13  15
ENDBRANCH   1  13
TORSDOF 6
