REMARK  7 active torsions:
REMARK  status: ('A' for Active; 'I' for Inactive)
REMARK    1  A    between atoms: C1_1  and  C2_2 
REMARK    2  A    between atoms: C2_2  and  C3_4 
REMARK    3  A    between atoms: C3_4  and  C4_5 
REMARK    4  A    between atoms: C3_4  and  C5_6 
REMARK    5  A    between atoms: C3_4  and  O2_7 
REMARK    6  A    between atoms: O2_7  and  C6_8 
REMARK    7  A    between atoms: C6_8  and  C7_9 
ROOT
ATOM      1  C7  <0> d           1.642   0.226  -4.509  0.00  0.00     0.034 C 
ATOM      2  C8  <0> d           1.705  -0.417  -5.832  0.00  0.00     0.061 C 
ATOM      3  N1  <0> d           1.753  -0.913  -6.852  0.00  0.00    -0.197 NA
ATOM      4  H12 <0> d           1.176   1.207  -4.604  0.00  0.00     0.058 H 
ATOM      5  H13 <0> d           2.651   0.340  -4.112  0.00  0.00     0.058 H 
ENDROOT
BRANCH   1   6
ATOM      6  C6  <0> d           0.815  -0.642  -3.559  0.00  0.00     0.032 C 
ATOM      7  H10 <0> d           1.281  -1.623  -3.464  0.00  0.00     0.075 H 
ATOM      8  H11 <0> d          -0.194  -0.755  -3.956  0.00  0.00     0.075 H 
BRANCH   6   9
ATOM      9  O2  <0> d           0.754  -0.017  -2.275  0.00  0.00    -0.372 OA
BRANCH   9  10
ATOM     10  C3  <0> d          -0.000  -0.750  -1.307  0.00  0.00     0.113 C 
BRANCH  10  11
ATOM     11  C2  <0> d           0.002  -0.004   0.002  0.00  0.00     0.156 C 
ATOM     12  O1  <0> d           0.020  -0.613   1.044  0.00  0.00    -0.295 OA
BRANCH  11  13
ATOM     13  C1  <0> d          -0.018   1.503   0.010  0.00  0.00    -0.018 C 
ATOM     14  H1  <0> d           1.004   1.880   0.003  0.00  0.00     0.037 H 
ATOM     15  H2  <0> d          -0.545   1.864  -0.873  0.00  0.00     0.037 H 
ATOM     16  H3  <0> d          -0.529   1.854   0.907  0.00  0.00     0.037 H 
ENDBRANCH  11  13
ENDBRANCH  10  11
BRANCH  10  17
ATOM     17  C4  <0> d           0.630  -2.130  -1.109  0.00  0.00    -0.041 C 
ATOM     18  H4  <0> d           0.055  -2.690  -0.370  0.00  0.00     0.032 H 
ATOM     19  H5  <0> d           0.629  -2.670  -2.055  0.00  0.00     0.032 H 
ATOM     20  H6  <0> d           1.656  -2.014  -0.758  0.00  0.00     0.032 H 
ENDBRANCH  10  17
BRANCH  10  21
ATOM     21  C5  <0> d          -1.440  -0.913  -1.799  0.00  0.00    -0.041 C 
ATOM     22  H7  <0> d          -1.889   0.070  -1.940  0.00  0.00     0.032 H 
ATOM     23  H8  <0> d          -1.441  -1.453  -2.746  0.00  0.00     0.032 H 
ATOM     24  H9  <0> d          -2.015  -1.473  -1.061  0.00  0.00     0.032 H 
ENDBRANCH  10  21
ENDBRANCH   9  10
ENDBRANCH   6   9
ENDBRANCH   1   6
TORSDOF 7
