REMARK  3 active torsions:
REMARK  status: ('A' for Active; 'I' for Inactive)
REMARK    1  A    between atoms: C1_1  and  C2_2 
REMARK    2  A    between atoms: C2_2  and  C3_3 
REMARK    3  A    between atoms: C3_3  and  C4_4 
ROOT
ATOM      1  C4  <0> d          -0.756   3.549   1.278  0.00  0.00    -0.053 C 
ATOM      2  C5  <0> d           0.676   4.076   1.384  0.00  0.00    -0.056 C 
ATOM      3  C6  <0> d           0.663   5.606   1.299  0.00  0.00    -0.009 C 
ATOM      4  C7  <0> d          -0.277   6.138   2.358  0.00  0.00     0.127 C 
ATOM      5  O1  <0> d           0.081   6.996   3.129  0.00  0.00    -0.298 OA
ATOM      6  C8  <0> d          -1.677   5.568   2.426  0.00  0.00    -0.009 C 
ATOM      7  C9  <0> d          -1.579   4.040   2.470  0.00  0.00    -0.056 C 
ATOM      8  H8  <0> d          -1.206   3.910   0.353  0.00  0.00     0.040 H 
ATOM      9  H9  <0> d           1.107   3.769   2.336  0.00  0.00     0.034 H 
ATOM     10  H10 <0> d           1.274   3.672   0.567  0.00  0.00     0.034 H 
ATOM     11  H11 <0> d           0.351   5.887   0.391  0.00  0.00     0.044 H 
ATOM     12  H12 <0> d           1.667   5.991   1.474  0.00  0.00     0.044 H 
ATOM     13  H13 <0> d          -2.193   5.856   1.620  0.00  0.00     0.044 H 
ATOM     14  H14 <0> d          -2.175   5.929   3.326  0.00  0.00     0.044 H 
ATOM     15  H15 <0> d          -2.579   3.610   2.423  0.00  0.00     0.034 H 
ATOM     16  H16 <0> d          -1.094   3.733   3.397  0.00  0.00     0.034 H 
ENDROOT
BRANCH   1  17
ATOM     17  C3  <0> d          -0.735   2.019   1.269  0.00  0.00    -0.062 C 
ATOM     18  H6  <0> d          -1.757   1.642   1.277  0.00  0.00     0.033 H 
ATOM     19  H7  <0> d          -0.208   1.658   2.152  0.00  0.00     0.033 H 
BRANCH  17  20
ATOM     20  C2  <0> d          -0.019   1.526   0.010  0.00  0.00    -0.068 C 
ATOM     21  H4  <0> d           1.004   1.903   0.003  0.00  0.00     0.032 H 
ATOM     22  H5  <0> d          -0.546   1.887  -0.873  0.00  0.00     0.032 H 
BRANCH  20  23
ATOM     23  C1  <0> d           0.002  -0.004   0.002  0.00  0.00    -0.077 C 
ATOM     24  H1  <0> d           0.529  -0.365   0.885  0.00  0.00     0.027 H 
ATOM     25  H2  <0> d          -1.020  -0.381   0.010  0.00  0.00     0.027 H 
ATOM     26  H3  <0> d           0.512  -0.356  -0.895  0.00  0.00     0.027 H 
ENDBRANCH  20  23
ENDBRANCH  17  20
ENDBRANCH   1  17
TORSDOF 3
