REMARK  2 active torsions:
REMARK  status: ('A' for Active; 'I' for Inactive)
REMARK    1  A    between atoms: C1_1  and  C2_2 
REMARK    2  A    between atoms: C2_2  and  C3_4 
ROOT
ATOM      1  C3  <0> d           1.107   2.024   0.002  0.00  0.00     0.105 A 
ATOM      2  C4  <0> d           2.349   1.389  -0.013  0.00  0.00    -0.051 A 
ATOM      3  C5  <0> d           2.397   0.003  -0.020  0.00  0.00    -0.076 A 
ATOM      4  C6  <0> d           1.205  -0.701  -0.013  0.00  0.00    -0.027 A 
ATOM      5  C7  <0> d           0.002  -0.004   0.002  0.00  0.00     0.210 A 
ATOM      6  N1  <0> d          -0.016   1.312   0.009  0.00  0.00    -0.217 NA
ATOM      7  F1  <0> d          -1.164  -0.687   0.009  0.00  0.00    -0.184 F 
ATOM      8  H4  <0> d           3.260   1.968  -0.019  0.00  0.00     0.087 H 
ATOM      9  H5  <0> d           3.345  -0.516  -0.032  0.00  0.00     0.083 H 
ATOM     10  H6  <0> d           1.209  -1.781  -0.019  0.00  0.00     0.090 H 
ENDROOT
BRANCH   1  11
ATOM     11  C2  <0> d           1.039   3.498   0.011  0.00  0.00     0.174 C 
ATOM     12  O1  <0> d           2.060   4.151   0.005  0.00  0.00    -0.291 OA
BRANCH  11  13
ATOM     13  C1  <0> d          -0.299   4.190   0.027  0.00  0.00    -0.015 C 
ATOM     14  H1  <0> d          -0.804   3.920   0.847  0.00  0.00     0.038 H 
ATOM     15  H2  <0> d          -0.149   5.270   0.032  0.00  0.00     0.038 H 
ATOM     16  H3  <0> d          -0.866   3.906  -0.859  0.00  0.00     0.038 H 
ENDBRANCH  11  13
ENDBRANCH   1  11
TORSDOF 2
