REMARK  2 active torsions:
REMARK  status: ('A' for Active; 'I' for Inactive)
REMARK    1  A    between atoms: C1_1  and  N1_2 
REMARK    2  A    between atoms: C2_3  and  N4_9 
ROOT
ATOM      1  N1  <0> d           2.080   0.728  -0.014  0.00  0.00    -0.258 N 
ATOM      2  C2  <0> d           1.309   1.835  -0.001  0.00  0.00     0.139 A 
ATOM      3  C3  <0> d          -0.017   1.410   0.010  0.00  0.00     0.108 A 
ATOM      4  C4  <0> d           0.002  -0.004   0.002  0.00  0.00     0.045 A 
ATOM      5  N2  <0> d           1.246  -0.394  -0.012  0.00  0.00    -0.182 NA
ATOM      6  C5  <0> d          -1.180   2.246   0.020  0.00  0.00     0.105 C 
ATOM      7  N3  <0> d          -2.102   2.909   0.028  0.00  0.00    -0.191 NA
ATOM      8  H4  <0> d          -0.864  -0.649   0.007  0.00  0.00     0.119 H 
ENDROOT
BRANCH   2   9
ATOM      9  N4  <0> d           1.751   3.144   0.002  0.00  0.00    -0.383 N 
ATOM     10  H5  <0> d           1.110   3.873   0.012  0.00  0.00     0.157 HD
ATOM     11  H6  <0> d           2.702   3.335  -0.007  0.00  0.00     0.157 HD
ENDBRANCH   2   9
BRANCH   1  12
ATOM     12  C1  <0> d           3.545   0.706  -0.028  0.00  0.00     0.004 C 
ATOM     13  H1  <0> d           3.899   0.706  -1.059  0.00  0.00     0.059 H 
ATOM     14  H2  <0> d           3.927   1.588   0.487  0.00  0.00     0.059 H 
ATOM     15  H3  <0> d           3.900  -0.192   0.478  0.00  0.00     0.059 H 
ENDBRANCH   1  12
TORSDOF 2
