REMARK  2 active torsions:
REMARK  status: ('A' for Active; 'I' for Inactive)
REMARK    1  A    between atoms: C1_1  and  C2_2 
REMARK    2  A    between atoms: C5_5  and  C6_7 
ROOT
ATOM      1  C2  <0> d           2.353   0.157  -0.020  0.00  0.00    -0.020 A 
ATOM      2  C3  <0> d           1.232  -0.612  -0.013  0.00  0.00    -0.069 A 
ATOM      3  C4  <0> d           0.002  -0.004   0.002  0.00  0.00    -0.059 A 
ATOM      4  C5  <0> d          -0.017   1.383   0.010  0.00  0.00     0.081 A 
ATOM      5  S1  <0> d           1.724   1.773  -0.005  0.00  0.00    -0.088 SA
ATOM      6  H4  <0> d           1.309  -1.689  -0.019  0.00  0.00     0.085 H 
ATOM      7  H5  <0> d          -0.911  -0.580   0.008  0.00  0.00     0.086 H 
ENDROOT
BRANCH   1   8
ATOM      8  C1  <0> d           3.793  -0.287  -0.036  0.00  0.00    -0.045 C 
ATOM      9  H1  <0> d           4.130  -0.388  -1.067  0.00  0.00     0.034 H 
ATOM     10  H2  <0> d           4.407   0.454   0.476  0.00  0.00     0.034 H 
ATOM     11  H3  <0> d           3.882  -1.247   0.472  0.00  0.00     0.034 H 
ENDBRANCH   1   8
BRANCH   4  12
ATOM     12  C6  <0> d          -1.166   2.290   0.020  0.00  0.00     0.216 C 
ATOM     13  O1  <0> d          -2.296   1.840   0.024  0.00  0.00    -0.643 OA
ATOM     14  O2  <0> d          -0.971   3.625   0.027  0.00  0.00    -0.643 OA
ENDBRANCH   4  12
TORSDOF 2
