REMARK  1 active torsions:
REMARK  status: ('A' for Active; 'I' for Inactive)
REMARK    1  A    between atoms: C5_6  and  C6_7 
ROOT
ATOM      1  C1  <0> d           0.060   3.823   0.022  0.00  0.00    -0.058 A 
ATOM      2  C2  <0> d           0.167   5.200   0.028  0.00  0.00    -0.026 A 
ATOM      3  C3  <0> d           1.425   5.785   0.019  0.00  0.00     0.212 A 
ATOM      4  N1  <0> d           2.520   5.046   0.005  0.00  0.00    -0.190 NA
ATOM      5  C4  <0> d           2.470   3.728   0.004  0.00  0.00     0.229 A 
ATOM      6  C5  <0> d           1.238   3.064   0.007  0.00  0.00     0.098 A 
ATOM      7  F1  <0> d           3.617   3.014  -0.004  0.00  0.00    -0.183 F 
ATOM      8  F2  <0> d           1.531   7.132   0.025  0.00  0.00    -0.184 F 
ATOM      9  H1  <0> d          -0.907   3.343   0.029  0.00  0.00     0.085 H 
ATOM     10  H2  <0> d          -0.721   5.816   0.040  0.00  0.00     0.090 H 
ENDROOT
BRANCH   6  11
ATOM     11  C6  <0> d           1.181   1.591  -0.001  0.00  0.00     0.214 C 
ATOM     12  O1  <0> d           2.209   0.943  -0.014  0.00  0.00    -0.644 OA
ATOM     13  O2  <0> d          -0.011   0.963   0.007  0.00  0.00    -0.644 OA
ENDBRANCH   6  11
TORSDOF 1
