REMARK  1 active torsions:
REMARK  status: ('A' for Active; 'I' for Inactive)
REMARK    1  A    between atoms: C3_3  and  C9_9 
ROOT
ATOM      1  C1  <0> d           1.417   2.055  -0.000  0.00  0.00    -0.060 C 
ATOM      2  C2  <0> d           2.133   1.562  -1.259  0.00  0.00    -0.048 C 
ATOM      3  C3  <0> d           1.175   0.703  -2.088  0.00  0.00     0.048 C 
ATOM      4  C4  <0> d           0.718  -0.497  -1.257  0.00  0.00    -0.048 C 
ATOM      5  C5  <0> d           0.002  -0.004   0.002  0.00  0.00    -0.060 C 
ATOM      6  C6  <0> d          -0.019   1.526   0.010  0.00  0.00    -0.054 C 
ATOM      7  C7  <0> d          -0.759   2.033  -1.229  0.00  0.00    -0.060 C 
ATOM      8  C8  <0> d          -0.043   1.539  -2.488  0.00  0.00    -0.048 C 
ATOM      9  H1  <0> d           1.402   3.145   0.006  0.00  0.00     0.033 H 
ATOM     10  H2  <0> d           1.944   1.694   0.883  0.00  0.00     0.033 H 
ATOM     11  H3  <0> d           3.000   0.967  -0.974  0.00  0.00     0.035 H 
ATOM     12  H4  <0> d           2.458   2.417  -1.851  0.00  0.00     0.035 H 
ATOM     13  H5  <0> d           1.585  -1.093  -0.972  0.00  0.00     0.035 H 
ATOM     14  H6  <0> d           0.036  -1.109  -1.847  0.00  0.00     0.035 H 
ATOM     15  H7  <0> d           0.529  -0.365   0.885  0.00  0.00     0.033 H 
ATOM     16  H8  <0> d          -1.020  -0.381   0.010  0.00  0.00     0.033 H 
ATOM     17  H9  <0> d          -0.529   1.877   0.907  0.00  0.00     0.040 H 
ATOM     18  H10 <0> d          -1.781   1.655  -1.221  0.00  0.00     0.033 H 
ATOM     19  H11 <0> d          -0.773   3.123  -1.223  0.00  0.00     0.033 H 
ATOM     20  H12 <0> d           0.283   2.395  -3.080  0.00  0.00     0.035 H 
ATOM     21  H13 <0> d          -0.725   0.928  -3.078  0.00  0.00     0.035 H 
ENDROOT
BRANCH   3  22
ATOM     22  C9  <0> d           1.880   0.217  -3.328  0.00  0.00     0.181 C 
ATOM     23  O1  <0> d           2.005  -0.968  -3.526  0.00  0.00    -0.647 OA
ATOM     24  O2  <0> d           2.370   1.101  -4.211  0.00  0.00    -0.647 OA
ENDBRANCH   3  22
TORSDOF 1
