REMARK  4 active torsions:
REMARK  status: ('A' for Active; 'I' for Inactive)
REMARK    1  A    between atoms: C1_1  and  C2_2 
REMARK    2  A    between atoms: C2_2  and  C3_3 
REMARK    3  A    between atoms: C2_2  and  C4_4 
REMARK    4  A    between atoms: C9_9  and  O1_10 
ROOT
ATOM      1  C4  <0> d           0.023  -0.705   1.199  0.00  0.00    -0.022 A 
ATOM      2  C5  <0> d           0.042  -2.087   1.188  0.00  0.00    -0.074 A 
ATOM      3  C6  <0> d           0.040  -2.770  -0.013  0.00  0.00    -0.082 A 
ATOM      4  C7  <0> d           0.018  -2.074  -1.208  0.00  0.00    -0.080 A 
ATOM      5  C8  <0> d          -0.006  -0.693  -1.203  0.00  0.00    -0.051 A 
ATOM      6  C9  <0> d           0.002  -0.004   0.002  0.00  0.00     0.072 A 
ATOM      7  H8  <0> d           0.058  -2.633   2.120  0.00  0.00     0.084 H 
ATOM      8  H9  <0> d           0.054  -3.850  -0.019  0.00  0.00     0.083 H 
ATOM      9  H10 <0> d           0.017  -2.610  -2.145  0.00  0.00     0.083 H 
ATOM     10  H11 <0> d          -0.027  -0.149  -2.136  0.00  0.00     0.087 H 
ENDROOT
BRANCH   1  11
ATOM     11  C2  <0> d           0.025   0.039   2.509  0.00  0.00    -0.033 C 
ATOM     12  H4  <0> d           0.008   1.112   2.317  0.00  0.00     0.046 H 
BRANCH  11  13
ATOM     13  C1  <0> d          -1.212  -0.353   3.320  0.00  0.00    -0.069 C 
ATOM     14  H1  <0> d          -1.195  -1.426   3.512  0.00  0.00     0.028 H 
ATOM     15  H2  <0> d          -1.210   0.185   4.268  0.00  0.00     0.028 H 
ATOM     16  H3  <0> d          -2.111  -0.098   2.759  0.00  0.00     0.028 H 
ENDBRANCH  11  13
BRANCH  11  17
ATOM     17  C3  <0> d           1.286  -0.318   3.297  0.00  0.00    -0.069 C 
ATOM     18  H5  <0> d           2.167  -0.039   2.719  0.00  0.00     0.028 H 
ATOM     19  H6  <0> d           1.288   0.220   4.245  0.00  0.00     0.028 H 
ATOM     20  H7  <0> d           1.303  -1.391   3.489  0.00  0.00     0.028 H 
ENDBRANCH  11  17
ENDBRANCH   1  11
BRANCH   6  21
ATOM     21  O1  <0> d          -0.016   1.355   0.009  0.00  0.00    -0.360 OA
ATOM     22  H12 <0> d           0.862   1.760   0.003  0.00  0.00     0.217 HD
ENDBRANCH   6  21
TORSDOF 4
