REMARK  2 active torsions:
REMARK  status: ('A' for Active; 'I' for Inactive)
REMARK    1  A    between atoms: C2_2  and  C4_7 
REMARK    2  A    between atoms: C3_4  and  N2_6 
ROOT
ATOM      1  C1  <0> d          -2.694   3.237   0.033  0.00  0.00     0.055 A 
ATOM      2  C2  <0> d          -3.334   2.060   0.029  0.00  0.00     0.167 A 
ATOM      3  N1  <0> d          -2.404   1.085   0.019  0.00  0.00    -0.202 NA
ATOM      4  C3  <0> d          -1.217   1.640   0.017  0.00  0.00     0.244 A 
ATOM      5  O1  <0> d          -1.369   2.974   0.031  0.00  0.00    -0.288 OA
ATOM      6  H1  <0> d          -3.152   4.215   0.042  0.00  0.00     0.127 H 
ENDROOT
BRANCH   2   7
ATOM      7  C4  <0> d          -4.828   1.861   0.035  0.00  0.00     0.436 C 
ATOM      8  F1  <0> d          -5.117   0.496   0.144  0.00  0.00    -0.165 F 
ATOM      9  F2  <0> d          -5.385   2.544   1.122  0.00  0.00    -0.165 F 
ATOM     10  F3  <0> d          -5.369   2.359  -1.155  0.00  0.00    -0.165 F 
ENDBRANCH   2   7
BRANCH   4  11
ATOM     11  N2  <0> d          -0.011   0.966   0.007  0.00  0.00    -0.363 N 
ATOM     12  H2  <0> d           0.002  -0.004   0.002  0.00  0.00     0.159 HD
ATOM     13  H3  <0> d           0.822   1.462   0.002  0.00  0.00     0.159 HD
ENDBRANCH   4  11
TORSDOF 2
