REMARK  4 active torsions:
REMARK  status: ('A' for Active; 'I' for Inactive)
REMARK    1  A    between atoms: C1_1  and  O1_2 
REMARK    2  A    between atoms: O1_2  and  C2_3 
REMARK    3  A    between atoms: C2_3  and  C3_5 
REMARK    4  A    between atoms: C6_8  and  N1_10 
ROOT
ATOM      1  C3  <0> d           0.618   3.213   0.013  0.00  0.00     0.152 A 
ATOM      2  C4  <0> d           1.100   1.920   0.002  0.00  0.00    -0.040 A 
ATOM      3  C5  <0> d          -0.013   1.076   0.008  0.00  0.00    -0.031 A 
ATOM      4  C6  <0> d          -1.122   1.871   0.017  0.00  0.00     0.142 A 
ATOM      5  O3  <0> d          -0.734   3.154   0.026  0.00  0.00    -0.288 OA
ATOM      6  H4  <0> d           2.137   1.619  -0.010  0.00  0.00     0.088 H 
ATOM      7  H5  <0> d           0.002  -0.004   0.002  0.00  0.00     0.090 H 
ENDROOT
BRANCH   1   8
ATOM      8  C2  <0> d           1.399   4.393   0.013  0.00  0.00     0.317 C 
ATOM      9  O2  <0> d           2.613   4.318   0.001  0.00  0.00    -0.257 OA
BRANCH   8  10
ATOM     10  O1  <0> d           0.797   5.601   0.025  0.00  0.00    -0.321 OA
BRANCH  10  11
ATOM     11  C1  <0> d           1.647   6.749   0.023  0.00  0.00     0.013 C 
ATOM     12  H1  <0> d           1.037   7.653   0.034  0.00  0.00     0.067 H 
ATOM     13  H2  <0> d           2.284   6.731   0.907  0.00  0.00     0.067 H 
ATOM     14  H3  <0> d           2.268   6.740  -0.872  0.00  0.00     0.067 H 
ENDBRANCH  10  11
ENDBRANCH   8  10
ENDBRANCH   1   8
BRANCH   4  15
ATOM     15  N1  <0> d          -2.428   1.427   0.020  0.00  0.00    -0.380 N 
ATOM     16  H6  <0> d          -2.617   0.475   0.015  0.00  0.00     0.158 HD
ATOM     17  H7  <0> d          -3.158   2.066   0.026  0.00  0.00     0.158 HD
ENDBRANCH   4  15
TORSDOF 4
