REMARK  6 active torsions:
REMARK  status: ('A' for Active; 'I' for Inactive)
REMARK    1  A    between atoms: C1_1  and  C2_2 
REMARK    2  A    between atoms: C2_2  and  O1_3 
REMARK    3  A    between atoms: O1_3  and  C3_4 
REMARK    4  A    between atoms: C3_4  and  C4_6 
REMARK    5  A    between atoms: C4_6  and  C5_7 
REMARK    6  A    between atoms: C5_7  and  C6_8 
ROOT
ATOM      1  C3  <0> d          -1.496  -1.832   0.006  0.00  0.00     0.258 C 
ATOM      2  O2  <0> d          -0.528  -2.555  -0.007  0.00  0.00    -0.265 OA
ENDROOT
BRANCH   1   3
ATOM      3  O1  <0> d          -1.339  -0.499   0.012  0.00  0.00    -0.322 OA
BRANCH   3   4
ATOM      4  C2  <0> d           0.002  -0.004   0.002  0.00  0.00     0.025 C 
ATOM      5  H4  <0> d           0.512  -0.356  -0.895  0.00  0.00     0.074 H 
ATOM      6  H5  <0> d           0.529  -0.365   0.885  0.00  0.00     0.074 H 
BRANCH   4   7
ATOM      7  C1  <0> d          -0.019   1.526   0.010  0.00  0.00    -0.056 C 
ATOM      8  H1  <0> d           1.004   1.903   0.003  0.00  0.00     0.030 H 
ATOM      9  H2  <0> d          -0.546   1.887  -0.873  0.00  0.00     0.030 H 
ATOM     10  H3  <0> d          -0.529   1.877   0.907  0.00  0.00     0.030 H 
ENDBRANCH   4   7
ENDBRANCH   3   4
ENDBRANCH   1   3
BRANCH   1  11
ATOM     11  C4  <0> d          -2.881  -2.427   0.017  0.00  0.00     0.021 C 
ATOM     12  H6  <0> d          -3.409  -2.103   0.913  0.00  0.00     0.048 H 
ATOM     13  H7  <0> d          -3.426  -2.093  -0.867  0.00  0.00     0.048 H 
BRANCH  11  14
ATOM     14  C5  <0> d          -2.780  -3.953   0.007  0.00  0.00    -0.002 C 
ATOM     15  H8  <0> d          -2.252  -4.277  -0.889  0.00  0.00     0.041 H 
ATOM     16  H9  <0> d          -2.235  -4.287   0.890  0.00  0.00     0.041 H 
BRANCH  14  17
ATOM     17  C6  <0> d          -4.186  -4.557   0.018  0.00  0.00     0.208 C 
ATOM     18  F1  <0> d          -4.097  -5.948  -0.106  0.00  0.00    -0.214 F 
ATOM     19  F2  <0> d          -4.823  -4.236   1.221  0.00  0.00    -0.214 F 
ATOM     20  H10 <0> d          -4.760  -4.154  -0.817  0.00  0.00     0.144 H 
ENDBRANCH  14  17
ENDBRANCH  11  14
ENDBRANCH   1  11
TORSDOF 6
