REMARK  3 active torsions:
REMARK  status: ('A' for Active; 'I' for Inactive)
REMARK    1  A    between atoms: C1_1  and  O1_2 
REMARK    2  A    between atoms: O1_2  and  C2_3 
REMARK    3  A    between atoms: C2_3  and  C3_5 
ROOT
ATOM      1  C3  <0> d           1.228   3.579   0.010  0.00  0.00     0.053 C 
ATOM      2  H1  <0> d           0.685   3.984   0.864  0.00  0.00     0.058 H 
ATOM      3  C4  <0> d           0.688   4.161  -1.317  0.00  0.00     0.022 C 
ATOM      4  C5  <0> d           1.577   5.354  -1.589  0.00  0.00     0.218 C 
ATOM      5  O3  <0> d           1.325   6.244  -2.373  0.00  0.00    -0.274 OA
ATOM      6  N1  <0> d           2.688   5.283  -0.836  0.00  0.00    -0.360 N 
ATOM      7  C6  <0> d           2.691   4.076  -0.002  0.00  0.00     0.007 C 
ATOM      8  H5  <0> d           0.777   3.428  -2.119  0.00  0.00     0.048 H 
ATOM      9  H6  <0> d          -0.349   4.476  -1.201  0.00  0.00     0.048 H 
ATOM     10  H7  <0> d           3.397   5.946  -0.843  0.00  0.00     0.162 HD
ATOM     11  H8  <0> d           3.015   4.317   1.010  0.00  0.00     0.065 H 
ATOM     12  H9  <0> d           3.343   3.318  -0.437  0.00  0.00     0.065 H 
ENDROOT
BRANCH   1  13
ATOM     13  C2  <0> d           1.170   2.073   0.002  0.00  0.00     0.264 C 
ATOM     14  O2  <0> d           2.192   1.429  -0.011  0.00  0.00    -0.265 OA
BRANCH  13  15
ATOM     15  O1  <0> d          -0.018   1.448   0.010  0.00  0.00    -0.326 OA
BRANCH  15  16
ATOM     16  C1  <0> d           0.002  -0.004   0.002  0.00  0.00     0.013 C 
ATOM     17  H2  <0> d           0.512  -0.356  -0.895  0.00  0.00     0.067 H 
ATOM     18  H3  <0> d           0.529  -0.365   0.885  0.00  0.00     0.067 H 
ATOM     19  H4  <0> d          -1.020  -0.381   0.010  0.00  0.00     0.067 H 
ENDBRANCH  15  16
ENDBRANCH  13  15
ENDBRANCH   1  13
TORSDOF 3
