REMARK  4 active torsions:
REMARK  status: ('A' for Active; 'I' for Inactive)
REMARK    1  A    between atoms: C1_1  and  C2_2 
REMARK    2  A    between atoms: C2_2  and  O1_3 
REMARK    3  A    between atoms: O1_3  and  C3_4 
REMARK    4  A    between atoms: C8_10  and  O2_12 
ROOT
ATOM      1  C3  <0> d          -0.753   1.593  -1.232  0.00  0.00     0.063 C 
ATOM      2  H1  <0> d          -0.767   2.683  -1.226  0.00  0.00     0.087 H 
ATOM      3  C4  <0> d          -2.188   1.063  -1.221  0.00  0.00    -0.038 C 
ATOM      4  C5  <0> d          -2.904   1.556   0.038  0.00  0.00    -0.063 C 
ATOM      5  C6  <0> d          -2.164   1.050   1.278  0.00  0.00    -0.063 C 
ATOM      6  C7  <0> d          -0.729   1.579   1.267  0.00  0.00    -0.039 C 
ATOM      7  C8  <0> d          -0.013   1.086   0.008  0.00  0.00     0.060 C 
ATOM      8  H2  <0> d           0.002  -0.004   0.002  0.00  0.00     0.086 H 
ATOM      9  H8  <0> d          -2.173  -0.027  -1.227  0.00  0.00     0.036 H 
ATOM     10  H9  <0> d          -2.715   1.424  -2.104  0.00  0.00     0.036 H 
ATOM     11  H10 <0> d          -3.927   1.179   0.046  0.00  0.00     0.033 H 
ATOM     12  H11 <0> d          -2.919   2.646   0.044  0.00  0.00     0.033 H 
ATOM     13  H12 <0> d          -2.149  -0.040   1.272  0.00  0.00     0.033 H 
ATOM     14  H13 <0> d          -2.674   1.401   2.175  0.00  0.00     0.033 H 
ATOM     15  H14 <0> d          -0.202   1.218   2.150  0.00  0.00     0.036 H 
ATOM     16  H15 <0> d          -0.744   2.669   1.273  0.00  0.00     0.036 H 
ENDROOT
BRANCH   1  17
ATOM     17  O1  <0> d          -0.084   1.132  -2.407  0.00  0.00    -0.384 OA
BRANCH  17  18
ATOM     18  C2  <0> d          -0.209   2.009  -3.529  0.00  0.00     0.017 C 
ATOM     19  H6  <0> d          -1.263   2.125  -3.783  0.00  0.00     0.073 H 
ATOM     20  H7  <0> d           0.214   2.981  -3.278  0.00  0.00     0.073 H 
BRANCH  18  21
ATOM     21  C1  <0> d           0.541   1.418  -4.724  0.00  0.00    -0.056 C 
ATOM     22  H3  <0> d           0.446   2.087  -5.579  0.00  0.00     0.030 H 
ATOM     23  H4  <0> d           1.595   1.302  -4.470  0.00  0.00     0.030 H 
ATOM     24  H5  <0> d           0.118   0.445  -4.974  0.00  0.00     0.030 H 
ENDBRANCH  18  21
ENDBRANCH  17  18
ENDBRANCH   1  17
BRANCH   7  25
ATOM     25  O2  <0> d           1.328   1.580  -0.002  0.00  0.00    -0.393 OA
ATOM     26  H16 <0> d           1.857   1.298   0.756  0.00  0.00     0.210 HD
ENDBRANCH   7  25
TORSDOF 4
