REMARK  3 active torsions:
REMARK  status: ('A' for Active; 'I' for Inactive)
REMARK    1  A    between atoms: C1_1  and  C2_2 
REMARK    2  A    between atoms: C2_2  and  C3_4 
REMARK    3  A    between atoms: C2_2  and  O1_9 
ROOT
ATOM      1  C3  <0> d          -0.019   1.526   0.010  0.00  0.00    -0.029 C 
ATOM      2  C4  <0> d          -0.769   2.037   1.258  0.00  0.00    -0.059 C 
ATOM      3  C5  <0> d          -1.537   3.285   0.753  0.00  0.00    -0.065 C 
ATOM      4  C6  <0> d          -1.984   2.860  -0.668  0.00  0.00    -0.065 C 
ATOM      5  C7  <0> d          -0.790   2.049  -1.214  0.00  0.00    -0.059 C 
ATOM      6  H5  <0> d           1.000   1.913   0.003  0.00  0.00     0.043 H 
ATOM      7  H6  <0> d          -1.466   1.282   1.620  0.00  0.00     0.033 H 
ATOM      8  H7  <0> d          -0.063   2.314   2.041  0.00  0.00     0.033 H 
ATOM      9  H8  <0> d          -0.877   4.152   0.708  0.00  0.00     0.033 H 
ATOM     10  H9  <0> d          -2.401   3.489   1.385  0.00  0.00     0.033 H 
ATOM     11  H10 <0> d          -2.164   3.738  -1.289  0.00  0.00     0.033 H 
ATOM     12  H11 <0> d          -2.877   2.238  -0.617  0.00  0.00     0.033 H 
ATOM     13  H12 <0> d          -0.146   2.691  -1.815  0.00  0.00     0.033 H 
ATOM     14  H13 <0> d          -1.150   1.213  -1.813  0.00  0.00     0.033 H 
ENDROOT
BRANCH   1  15
ATOM     15  C2  <0> d           0.002  -0.004   0.002  0.00  0.00     0.035 C 
ATOM     16  H1  <0> d          -1.020  -0.381   0.022  0.00  0.00     0.082 H 
BRANCH  15  17
ATOM     17  C1  <0> d           0.757  -0.511   1.232  0.00  0.00    -0.052 C 
ATOM     18  H2  <0> d           0.258  -0.159   2.135  0.00  0.00     0.030 H 
ATOM     19  H3  <0> d           0.772  -1.601   1.226  0.00  0.00     0.030 H 
ATOM     20  H4  <0> d           1.780  -0.133   1.212  0.00  0.00     0.030 H 
ENDBRANCH  15  17
BRANCH  15  21
ATOM     21  O1  <0> d           0.656  -0.465  -1.182  0.00  0.00    -0.396 OA
ATOM     22  H14 <0> d           1.573  -0.167  -1.266  0.00  0.00     0.210 HD
ENDBRANCH  15  21
ENDBRANCH   1  15
TORSDOF 3
