REMARK  4 active torsions:
REMARK  status: ('A' for Active; 'I' for Inactive)
REMARK    1  A    between atoms: C1_1  and  O1_2 
REMARK    2  A    between atoms: O1_2  and  C2_3 
REMARK    3  A    between atoms: C7_8  and  C8_9 
REMARK    4  A    between atoms: C8_9  and  O2_10 
ROOT
ATOM      1  C2  <0> d           1.179   1.786   0.000  0.00  0.00     0.076 A 
ATOM      2  C3  <0> d          -0.013   1.076   0.008  0.00  0.00    -0.047 A 
ATOM      3  C4  <0> d          -1.218   1.750   0.017  0.00  0.00    -0.043 A 
ATOM      4  C5  <0> d          -1.237   3.135   0.029  0.00  0.00     0.117 A 
ATOM      5  C6  <0> d          -0.049   3.845   0.022  0.00  0.00    -0.035 A 
ATOM      6  C7  <0> d           1.159   3.173   0.008  0.00  0.00     0.001 A 
ATOM      7  F1  <0> d          -2.417   3.794   0.043  0.00  0.00    -0.206 F 
ATOM      8  H4  <0> d           0.002  -0.004   0.002  0.00  0.00     0.087 H 
ATOM      9  H5  <0> d          -2.146   1.198   0.019  0.00  0.00     0.088 H 
ATOM     10  H6  <0> d          -0.065   4.925   0.028  0.00  0.00     0.089 H 
ENDROOT
BRANCH   1  11
ATOM     11  O1  <0> d           2.366   1.123  -0.015  0.00  0.00    -0.355 OA
BRANCH  11  12
ATOM     12  C1  <0> d           2.312  -0.305  -0.022  0.00  0.00     0.010 C 
ATOM     13  H1  <0> d           1.793  -0.653   0.872  0.00  0.00     0.066 H 
ATOM     14  H2  <0> d           1.776  -0.643  -0.908  0.00  0.00     0.066 H 
ATOM     15  H3  <0> d           3.325  -0.707  -0.033  0.00  0.00     0.066 H 
ENDBRANCH  11  12
ENDBRANCH   1  11
BRANCH   6  16
ATOM     16  C8  <0> d           2.452   3.946  -0.000  0.00  0.00     0.043 C 
ATOM     17  H7  <0> d           3.035   3.687   0.883  0.00  0.00     0.081 H 
ATOM     18  H8  <0> d           3.019   3.696  -0.896  0.00  0.00     0.081 H 
BRANCH  16  19
ATOM     19  O2  <0> d           2.170   5.347   0.009  0.00  0.00    -0.396 OA
ATOM     20  H9  <0> d           2.958   5.907   0.005  0.00  0.00     0.209 HD
ENDBRANCH  16  19
ENDBRANCH   6  16
TORSDOF 4
