REMARK  4 active torsions:
REMARK  status: ('A' for Active; 'I' for Inactive)
REMARK    1  A    between atoms: C1_1  and  C2_2 
REMARK    2  A    between atoms: C2_2  and  C3_4 
REMARK    3  A    between atoms: C2_2  and  N1_6 
REMARK    4  A    between atoms: C5_9  and  N4_11 
ROOT
ATOM      1  N1  <0> d          -2.430   0.973   0.019  0.00  0.00    -0.232 N 
ATOM      2  C4  <0> d          -2.447  -0.226   0.625  0.00  0.00     0.103 A 
ATOM      3  N2  <0> d          -3.607  -0.786   0.393  0.00  0.00    -0.055 NA
ATOM      4  C5  <0> d          -4.355   0.022  -0.366  0.00  0.00     0.738 A 
ATOM      5  N3  <0> d          -3.672   1.113  -0.620  0.00  0.00     0.022 NA
ATOM      6  H5  <0> d          -1.643  -0.653   1.206  0.00  0.00     0.147 H 
ENDROOT
BRANCH   1   7
ATOM      7  C2  <0> d          -1.329   1.940   0.019  0.00  0.00     0.116 C 
ATOM      8  H1  <0> d          -1.400   2.570  -0.867  0.00  0.00     0.092 H 
BRANCH   7   9
ATOM      9  C1  <0> d          -1.417   2.811   1.273  0.00  0.00    -0.046 C 
ATOM     10  H2  <0> d          -0.598   3.531   1.273  0.00  0.00     0.031 H 
ATOM     11  H3  <0> d          -2.368   3.344   1.281  0.00  0.00     0.031 H 
ATOM     12  H4  <0> d          -1.346   2.181   2.160  0.00  0.00     0.031 H 
ENDBRANCH   7   9
BRANCH   7  13
ATOM     13  C3  <0> d          -0.014   1.204   0.009  0.00  0.00     0.198 C 
ATOM     14  O1  <0> d           0.002  -0.004   0.002  0.00  0.00    -0.646 OA
ATOM     15  O2  <0> d           1.139   1.891   0.001  0.00  0.00    -0.646 OA
ENDBRANCH   7  13
ENDBRANCH   1   7
BRANCH   4  16
ATOM     16  N4  <0> d          -5.648  -0.252  -0.815  0.00  0.00    -0.230 N 
ATOM     17  H6  <0> d          -6.118   0.395  -1.364  0.00  0.00     0.174 HD
ATOM     18  H7  <0> d          -6.077  -1.088  -0.577  0.00  0.00     0.174 HD
ENDBRANCH   4  16
TORSDOF 4
