REMARK  5 active torsions:
REMARK  status: ('A' for Active; 'I' for Inactive)
REMARK    1  A    between atoms: C1_1  and  C2_2 
REMARK    2  A    between atoms: C2_2  and  C3_3 
REMARK    3  A    between atoms: C3_3  and  C4_4 
REMARK    4  A    between atoms: C4_4  and  C5_6 
REMARK    5  A    between atoms: C4_4  and  O2_8 
ROOT
ATOM      1  C3  <0> d          -1.483   2.728  -1.284  0.00  0.00    -0.032 C 
ATOM      2  H7  <0> d          -0.621   3.381  -1.417  0.00  0.00     0.037 H 
ATOM      3  H8  <0> d          -1.547   2.035  -2.122  0.00  0.00     0.037 H 
ENDROOT
BRANCH   1   4
ATOM      4  C2  <0> d          -2.758   3.572  -1.221  0.00  0.00    -0.066 C 
ATOM      5  H5  <0> d          -3.620   2.919  -1.088  0.00  0.00     0.032 H 
ATOM      6  H6  <0> d          -2.694   4.265  -0.383  0.00  0.00     0.032 H 
BRANCH   4   7
ATOM      7  C1  <0> d          -2.911   4.360  -2.524  0.00  0.00    -0.076 C 
ATOM      8  H2  <0> d          -3.819   4.962  -2.479  0.00  0.00     0.027 H 
ATOM      9  H3  <0> d          -2.049   5.013  -2.657  0.00  0.00     0.027 H 
ATOM     10  H4  <0> d          -2.975   3.667  -3.362  0.00  0.00     0.027 H 
ENDBRANCH   4   7
ENDBRANCH   1   4
BRANCH   1  11
ATOM     11  C4  <0> d          -1.329   1.940   0.019  0.00  0.00     0.119 C 
ATOM     12  H1  <0> d          -1.355   2.627   0.865  0.00  0.00     0.100 H 
BRANCH  11  13
ATOM     13  C5  <0> d          -0.014   1.204   0.009  0.00  0.00     0.203 C 
ATOM     14  O1  <0> d           0.002  -0.004   0.002  0.00  0.00    -0.646 OA
ATOM     15  O3  <0> d           1.139   1.891   0.001  0.00  0.00    -0.646 OA
ENDBRANCH  11  13
BRANCH  11  16
ATOM     16  O2  <0> d          -2.400   1.000   0.136  0.00  0.00    -0.385 OA
ATOM     17  H9  <0> d          -2.439   0.356  -0.584  0.00  0.00     0.210 HD
ENDBRANCH  11  16
ENDBRANCH   1  11
TORSDOF 5
