REMARK  0 active torsions:
REMARK  status: ('A' for Active; 'I' for Inactive)
ROOT
ATOM      1  C1  <0> d          -0.708   3.099  -1.393  0.00  0.00    -0.058 C 
ATOM      2  C2  <0> d          -1.711   3.931  -0.626  0.00  0.00    -0.053 C 
ATOM      3  H1  <0> d          -1.679   4.978  -0.928  0.00  0.00     0.040 H 
ATOM      4  C3  <0> d          -3.142   3.301  -0.857  0.00  0.00    -0.058 C 
ATOM      5  C4  <0> d          -2.934   1.972  -0.067  0.00  0.00    -0.043 C 
ATOM      6  H2  <0> d          -3.884   1.537   0.244  0.00  0.00     0.041 H 
ATOM      7  C5  <0> d          -2.207   1.071  -1.077  0.00  0.00    -0.057 C 
ATOM      8  C6  <0> d          -0.778   1.605  -1.211  0.00  0.00    -0.047 C 
ATOM      9  H3  <0> d          -0.336   1.151  -2.099  0.00  0.00     0.040 H 
ATOM     10  C7  <0> d          -0.013   1.086   0.008  0.00  0.00    -0.006 C 
ATOM     11  C8  <0> d          -0.740   1.582   1.224  0.00  0.00     0.131 C 
ATOM     12  O1  <0> d          -0.261   1.381   2.314  0.00  0.00    -0.298 OA
ATOM     13  C9  <0> d          -2.051   2.299   1.136  0.00  0.00     0.008 C 
ATOM     14  H4  <0> d          -2.565   2.143   1.979  0.00  0.00     0.052 H 
ATOM     15  C10 <0> d          -1.574   3.772   0.905  0.00  0.00    -0.052 C 
ATOM     16  H5  <0> d           0.282   3.429  -1.079  0.00  0.00     0.034 H 
ATOM     17  H6  <0> d          -0.805   3.311  -2.458  0.00  0.00     0.034 H 
ATOM     18  H7  <0> d          -3.344   3.109  -1.911  0.00  0.00     0.034 H 
ATOM     19  H8  <0> d          -3.926   3.911  -0.409  0.00  0.00     0.034 H 
ATOM     20  H9  <0> d          -2.712   1.114  -2.043  0.00  0.00     0.034 H 
ATOM     21  H10 <0> d          -2.188   0.044  -0.714  0.00  0.00     0.034 H 
ATOM     22  H11 <0> d           0.009   0.086  -0.013  0.00  0.00     0.044 H 
ATOM     23  H12 <0> d           1.007   1.472   0.000  0.00  0.00     0.044 H 
ATOM     24  H13 <0> d          -2.224   4.475   1.427  0.00  0.00     0.034 H 
ATOM     25  H14 <0> d          -0.537   3.897   1.217  0.00  0.00     0.034 H 
ENDROOT
TORSDOF 0
