REMARK  3 active torsions:
REMARK  status: ('A' for Active; 'I' for Inactive)
REMARK    1  A    between atoms: C1_1  and  C2_2 
REMARK    2  A    between atoms: C5_5  and  C8_9 
REMARK    3  A    between atoms: C7_7  and  O1_8 
ROOT
ATOM      1  C2  <0> d           2.385   1.426  -0.013  0.00  0.00    -0.027 A 
ATOM      2  C3  <0> d           1.186   2.105   0.002  0.00  0.00    -0.054 A 
ATOM      3  C4  <0> d          -0.017   1.393   0.010  0.00  0.00     0.051 A 
ATOM      4  C5  <0> d           0.002  -0.004   0.002  0.00  0.00    -0.039 A 
ATOM      5  C6  <0> d           1.205  -0.674  -0.013  0.00  0.00    -0.043 A 
ATOM      6  C7  <0> d           2.399   0.037  -0.021  0.00  0.00     0.072 A 
ATOM      7  C9  <0> d          -1.266   2.095   0.019  0.00  0.00     0.100 C 
ATOM      8  N1  <0> d          -2.256   2.651   0.027  0.00  0.00    -0.191 NA
ATOM      9  H4  <0> d           1.176   3.185   0.008  0.00  0.00     0.086 H 
ATOM     10  H5  <0> d           1.220  -1.754  -0.019  0.00  0.00     0.088 H 
ENDROOT
BRANCH   4  11
ATOM     11  C8  <0> d          -1.292  -0.776   0.010  0.00  0.00    -0.050 C 
ATOM     12  H7  <0> d          -1.613  -0.957  -1.016  0.00  0.00     0.033 H 
ATOM     13  H8  <0> d          -1.143  -1.730   0.517  0.00  0.00     0.033 H 
ATOM     14  H9  <0> d          -2.055  -0.201   0.534  0.00  0.00     0.033 H 
ENDBRANCH   4  11
BRANCH   1  15
ATOM     15  C1  <0> d           3.683   2.192  -0.020  0.00  0.00    -0.049 C 
ATOM     16  H1  <0> d           3.986   2.383  -1.050  0.00  0.00     0.033 H 
ATOM     17  H2  <0> d           3.548   3.140   0.500  0.00  0.00     0.033 H 
ATOM     18  H3  <0> d           4.453   1.607   0.483  0.00  0.00     0.033 H 
ENDBRANCH   1  15
BRANCH   6  19
ATOM     19  O1  <0> d           3.583  -0.628  -0.035  0.00  0.00    -0.360 OA
ATOM     20  H6  <0> d           3.917  -0.816  -0.923  0.00  0.00     0.217 HD
ENDBRANCH   6  19
TORSDOF 3
