REMARK  6 active torsions:
REMARK  status: ('A' for Active; 'I' for Inactive)
REMARK    1  A    between atoms: C1_1  and  C2_2 
REMARK    2  A    between atoms: C2_2  and  O1_3 
REMARK    3  A    between atoms: O1_3  and  C3_4 
REMARK    4  A    between atoms: C3_4  and  C4_5 
REMARK    5  A    between atoms: C5_6  and  C6_7 
REMARK    6  A    between atoms: C6_7  and  O2_8 
ROOT
ATOM      1  C1  <0> d          -0.018   1.468   0.010  0.00  0.00     0.034 C 
ATOM      2  C7  <0> d           0.002  -0.004   0.002  0.00  0.00     0.061 C 
ATOM      3  N1  <0> d           0.018  -1.140  -0.004  0.00  0.00    -0.197 NA
ATOM      4  H1  <0> d           1.005   1.845   0.002  0.00  0.00     0.058 H 
ATOM      5  H2  <0> d          -0.545   1.829  -0.873  0.00  0.00     0.058 H 
ENDROOT
BRANCH   1   6
ATOM      6  C2  <0> d          -0.734   1.961   1.269  0.00  0.00     0.032 C 
ATOM      7  H3  <0> d          -1.757   1.584   1.277  0.00  0.00     0.075 H 
ATOM      8  H4  <0> d          -0.207   1.600   2.152  0.00  0.00     0.075 H 
BRANCH   6   9
ATOM      9  O1  <0> d          -0.753   3.390   1.277  0.00  0.00    -0.379 OA
BRANCH   9  10
ATOM     10  C3  <0> d          -1.403   3.956   2.417  0.00  0.00     0.074 C 
ATOM     11  H5  <0> d          -2.440   3.620   2.448  0.00  0.00     0.093 H 
ATOM     12  H6  <0> d          -0.890   3.637   3.324  0.00  0.00     0.093 H 
BRANCH  10  13
ATOM     13  C4  <0> d          -1.366   5.425   2.324  0.00  0.00    -0.078 C 
ATOM     14  C5  <0> d          -1.336   6.596   2.249  0.00  0.00    -0.079 C 
BRANCH  14  15
ATOM     15  C6  <0> d          -1.299   8.065   2.156  0.00  0.00     0.071 C 
ATOM     16  H7  <0> d          -0.263   8.401   2.125  0.00  0.00     0.093 H 
ATOM     17  H8  <0> d          -1.812   8.384   1.249  0.00  0.00     0.093 H 
BRANCH  15  18
ATOM     18  O2  <0> d          -1.949   8.631   3.296  0.00  0.00    -0.389 OA
ATOM     19  H9  <0> d          -1.962   9.598   3.301  0.00  0.00     0.210 HD
ENDBRANCH  15  18
ENDBRANCH  14  15
ENDBRANCH  10  13
ENDBRANCH   9  10
ENDBRANCH   6   9
ENDBRANCH   1   6
TORSDOF 6
