REMARK  2 active torsions:
REMARK  status: ('A' for Active; 'I' for Inactive)
REMARK    1  A    between atoms: C1_1  and  C2_2 
REMARK    2  A    between atoms: C2_2  and  C3_4 
ROOT
ATOM      1  C3  <0> d           1.223  -0.686  -0.015  0.00  0.00     0.009 A 
ATOM      2  C4  <0> d           0.002  -0.004  -0.011  0.00  0.00    -0.068 A 
ATOM      3  C5  <0> d          -0.017   1.372  -0.005  0.00  0.00    -0.062 A 
ATOM      4  C6  <0> d           1.183   2.088  -0.004  0.00  0.00     0.044 A 
ATOM      5  C7  <0> d           2.403   1.407  -0.008  0.00  0.00    -0.062 A 
ATOM      6  C8  <0> d           2.424   0.031  -0.014  0.00  0.00    -0.068 A 
ATOM      7  C9  <0> d           1.162   3.520   0.003  0.00  0.00     0.099 C 
ATOM      8  N1  <0> d           1.146   4.655   0.007  0.00  0.00    -0.191 NA
ATOM      9  H4  <0> d          -0.926  -0.557  -0.012  0.00  0.00     0.085 H 
ATOM     10  H5  <0> d          -0.960   1.899  -0.006  0.00  0.00     0.085 H 
ATOM     11  H6  <0> d           3.330   1.961  -0.007  0.00  0.00     0.085 H 
ATOM     12  H7  <0> d           3.367  -0.495  -0.017  0.00  0.00     0.085 H 
ENDROOT
BRANCH   1  13
ATOM     13  C2  <0> d           1.244  -2.159  -0.021  0.00  0.00     0.155 C 
ATOM     14  O1  <0> d           0.208  -2.780   0.079  0.00  0.00    -0.293 OA
BRANCH  13  15
ATOM     15  C1  <0> d           2.554  -2.893  -0.151  0.00  0.00    -0.017 C 
ATOM     16  H1  <0> d           3.307  -2.235  -0.139  0.00  0.00     0.038 H 
ATOM     17  H2  <0> d           2.665  -3.588   0.681  0.00  0.00     0.038 H 
ATOM     18  H3  <0> d           2.569  -3.446  -1.090  0.00  0.00     0.038 H 
ENDBRANCH  13  15
ENDBRANCH   1  13
TORSDOF 2
