REMARK  7 active torsions:
REMARK  status: ('A' for Active; 'I' for Inactive)
REMARK    1  A    between atoms: C1_1  and  C2_2 
REMARK    2  A    between atoms: C2_2  and  C3_3 
REMARK    3  A    between atoms: C2_2  and  C4_4 
REMARK    4  A    between atoms: C2_2  and  O1_5 
REMARK    5  A    between atoms: O1_5  and  C5_6 
REMARK    6  A    between atoms: C5_6  and  C6_7 
REMARK    7  A    between atoms: C6_7  and  O2_8 
ROOT
ATOM      1  C2  <0> d           0.367   4.914   1.348  0.00  0.00     0.050 C 
ENDROOT
BRANCH   1   2
ATOM      2  C1  <0> d          -0.537   5.404   0.216  0.00  0.00    -0.048 C 
ATOM      3  H1  <0> d          -1.506   4.910   0.285  0.00  0.00     0.031 H 
ATOM      4  H2  <0> d          -0.673   6.483   0.301  0.00  0.00     0.031 H 
ATOM      5  H3  <0> d          -0.077   5.171  -0.744  0.00  0.00     0.031 H 
ENDBRANCH   1   2
BRANCH   1   6
ATOM      6  C3  <0> d          -0.278   5.242   2.696  0.00  0.00    -0.048 C 
ATOM      7  H4  <0> d           0.366   4.892   3.502  0.00  0.00     0.031 H 
ATOM      8  H5  <0> d          -0.414   6.320   2.781  0.00  0.00     0.031 H 
ATOM      9  H6  <0> d          -1.247   4.747   2.765  0.00  0.00     0.031 H 
ENDBRANCH   1   6
BRANCH   1  10
ATOM     10  C4  <0> d           1.727   5.608   1.252  0.00  0.00    -0.048 C 
ATOM     11  H7  <0> d           2.187   5.375   0.292  0.00  0.00     0.031 H 
ATOM     12  H8  <0> d           1.591   6.686   1.337  0.00  0.00     0.031 H 
ATOM     13  H9  <0> d           2.372   5.259   2.058  0.00  0.00     0.031 H 
ENDBRANCH   1  10
BRANCH   1  14
ATOM     14  O1  <0> d           0.546   3.500   1.237  0.00  0.00    -0.379 OA
BRANCH  14  15
ATOM     15  C5  <0> d           1.145   3.085   0.008  0.00  0.00     0.040 C 
ATOM     16  H10 <0> d           2.130   3.542  -0.089  0.00  0.00     0.077 H 
ATOM     17  H11 <0> d           0.516   3.397  -0.827  0.00  0.00     0.077 H 
BRANCH  15  18
ATOM     18  C6  <0> d           1.286   1.562  -0.002  0.00  0.00     0.036 C 
ATOM     19  H12 <0> d           1.840   1.243   0.881  0.00  0.00     0.077 H 
ATOM     20  H13 <0> d           1.823   1.252  -0.899  0.00  0.00     0.077 H 
BRANCH  18  21
ATOM     21  O2  <0> d          -0.011   0.963   0.007  0.00  0.00    -0.399 OA
ATOM     22  H14 <0> d           0.002  -0.004   0.002  0.00  0.00     0.209 HD
ENDBRANCH  18  21
ENDBRANCH  15  18
ENDBRANCH  14  15
ENDBRANCH   1  14
TORSDOF 7
