REMARK  0 active torsions:
REMARK  status: ('A' for Active; 'I' for Inactive)
ROOT
ATOM      1  C1  <0> d           1.230  -0.688  -0.013  0.00  0.00    -0.075 A 
ATOM      2  C2  <0> d           0.002  -0.004   0.002  0.00  0.00    -0.061 A 
ATOM      3  C3  <0> d          -0.016   1.345   0.009  0.00  0.00     0.023 A 
ATOM      4  O1  <0> d           1.124   2.051   0.002  0.00  0.00    -0.288 OA
ATOM      5  C4  <0> d           2.318   1.437  -0.013  0.00  0.00     0.287 A 
ATOM      6  O2  <0> d           3.343   2.098  -0.019  0.00  0.00    -0.260 OA
ATOM      7  C5  <0> d           2.388   0.032  -0.021  0.00  0.00    -0.010 A 
ATOM      8  H1  <0> d           1.255  -1.768  -0.020  0.00  0.00     0.083 H 
ATOM      9  H2  <0> d          -0.925  -0.557   0.008  0.00  0.00     0.086 H 
ATOM     10  H3  <0> d          -0.963   1.865   0.017  0.00  0.00     0.123 H 
ATOM     11  H4  <0> d           3.345  -0.469  -0.032  0.00  0.00     0.092 H 
ENDROOT
TORSDOF 0
