REMARK  5 active torsions:
REMARK  status: ('A' for Active; 'I' for Inactive)
REMARK    1  A    between atoms: C1_1  and  C2_2 
REMARK    2  A    between atoms: C4_4  and  N1_11 
REMARK    3  A    between atoms: C5_5  and  C9_10 
REMARK    4  A    between atoms: C7_7  and  O1_8 
REMARK    5  A    between atoms: O1_8  and  C8_9 
ROOT
ATOM      1  C2  <0> d          -0.748   1.595   3.561  0.00  0.00    -0.026 A 
ATOM      2  C3  <0> d          -0.207   1.225   4.777  0.00  0.00    -0.049 A 
ATOM      3  C4  <0> d           0.937   0.440   4.817  0.00  0.00     0.032 A 
ATOM      4  C5  <0> d           1.537   0.026   3.634  0.00  0.00    -0.033 A 
ATOM      5  C6  <0> d           0.991   0.392   2.420  0.00  0.00    -0.042 A 
ATOM      6  C7  <0> d          -0.148   1.182   2.381  0.00  0.00     0.074 A 
ATOM      7  H4  <0> d          -0.673   1.548   5.696  0.00  0.00     0.087 H 
ATOM      8  H5  <0> d           1.455   0.067   1.500  0.00  0.00     0.088 H 
ENDROOT
BRANCH   6   9
ATOM      9  O1  <0> d          -0.682   1.547   1.184  0.00  0.00    -0.355 OA
BRANCH   9  10
ATOM     10  C8  <0> d          -0.013   1.086   0.008  0.00  0.00     0.010 C 
ATOM     11  H6  <0> d           0.002  -0.004   0.002  0.00  0.00     0.066 H 
ATOM     12  H7  <0> d           1.010   1.463   0.000  0.00  0.00     0.066 H 
ATOM     13  H8  <0> d          -0.540   1.447  -0.875  0.00  0.00     0.066 H 
ENDBRANCH   9  10
ENDBRANCH   6   9
BRANCH   1  14
ATOM     14  C1  <0> d          -1.989   2.448   3.517  0.00  0.00    -0.049 C 
ATOM     15  H1  <0> d          -2.871   1.806   3.507  0.00  0.00     0.033 H 
ATOM     16  H2  <0> d          -2.019   3.092   4.396  0.00  0.00     0.033 H 
ATOM     17  H3  <0> d          -1.977   3.062   2.616  0.00  0.00     0.033 H 
ENDBRANCH   1  14
BRANCH   4  18
ATOM     18  C9  <0> d           2.779  -0.827   3.677  0.00  0.00    -0.049 C 
ATOM     19  H9  <0> d           2.497  -1.879   3.689  0.00  0.00     0.033 H 
ATOM     20  H10 <0> d           3.389  -0.624   2.796  0.00  0.00     0.033 H 
ATOM     21  H11 <0> d           3.349  -0.593   4.576  0.00  0.00     0.033 H 
ENDBRANCH   4  18
BRANCH   3  22
ATOM     22  N1  <0> d           1.486   0.065   6.048  0.00  0.00    -0.399 N 
ATOM     23  H12 <0> d           1.068   0.354   6.874  0.00  0.00     0.156 HD
ATOM     24  H13 <0> d           2.286  -0.484   6.076  0.00  0.00     0.156 HD
ENDBRANCH   3  22
TORSDOF 5
