REMARK  5 active torsions:
REMARK  status: ('A' for Active; 'I' for Inactive)
REMARK    1  A    between atoms: N1_3  and  C4_7 
REMARK    2  A    between atoms: C3_5  and  N3_6 
REMARK    3  A    between atoms: C4_7  and  C5_8 
REMARK    4  A    between atoms: C5_8  and  C6_9 
REMARK    5  A    between atoms: C6_9  and  O1_10 
ROOT
ATOM      1  C4  <0> d           3.532   0.761  -0.028  0.00  0.00     0.018 C 
ATOM      2  H5  <0> d           3.891   0.335  -0.965  0.00  0.00     0.067 H 
ATOM      3  H6  <0> d           3.887   1.788   0.064  0.00  0.00     0.067 H 
ENDROOT
BRANCH   1   4
ATOM      4  N1  <0> d           2.067   0.748  -0.014  0.00  0.00    -0.279 N 
ATOM      5  C2  <0> d           1.264   1.832  -0.000  0.00  0.00     0.002 A 
ATOM      6  C1  <0> d          -0.017   1.400   0.010  0.00  0.00    -0.021 A 
ATOM      7  H2  <0> d           1.588   2.863   0.002  0.00  0.00     0.114 H 
ATOM      8  C3  <0> d           0.002  -0.004   0.002  0.00  0.00     0.142 A 
ATOM      9  H1  <0> d          -0.898   2.024   0.025  0.00  0.00     0.091 H 
ATOM     10  N2  <0> d           1.255  -0.394  -0.012  0.00  0.00    -0.155 NA
BRANCH   8  11
ATOM     11  N3  <0> d          -1.119  -0.842   0.009  0.00  0.00    -0.383 N 
ATOM     12  H3  <0> d          -2.011  -0.459   0.019  0.00  0.00     0.157 HD
ATOM     13  H4  <0> d          -1.005  -1.805   0.002  0.00  0.00     0.157 HD
ENDBRANCH   8  11
ENDBRANCH   1   4
BRANCH   1  14
ATOM     14  C5  <0> d           4.061  -0.068   1.145  0.00  0.00    -0.029 C 
ATOM     15  H7  <0> d           3.703   0.358   2.082  0.00  0.00     0.038 H 
ATOM     16  H8  <0> d           3.706  -1.094   1.053  0.00  0.00     0.038 H 
BRANCH  14  17
ATOM     17  C6  <0> d           5.591  -0.053   1.130  0.00  0.00     0.018 C 
ATOM     18  H9  <0> d           5.949  -0.479   0.193  0.00  0.00     0.074 H 
ATOM     19  H10 <0> d           5.946   0.973   1.222  0.00  0.00     0.074 H 
BRANCH  17  20
ATOM     20  O1  <0> d           6.085  -0.828   2.225  0.00  0.00    -0.401 OA
ATOM     21  H11 <0> d           7.050  -0.863   2.278  0.00  0.00     0.209 HD
ENDBRANCH  17  20
ENDBRANCH  14  17
ENDBRANCH   1  14
TORSDOF 5
