REMARK  3 active torsions:
REMARK  status: ('A' for Active; 'I' for Inactive)
REMARK    1  A    between atoms: C2_2  and  C3_3 
REMARK    2  A    between atoms: C3_3  and  O1_4 
REMARK    3  A    between atoms: O1_4  and  C4_5 
ROOT
ATOM      1  C4  <0> d           1.175   2.087   0.002  0.00  0.00     0.069 A 
ATOM      2  C5  <0> d          -0.017   1.377   0.010  0.00  0.00    -0.048 A 
ATOM      3  C6  <0> d           0.002  -0.004   0.002  0.00  0.00    -0.043 A 
ATOM      4  C7  <0> d           1.210  -0.681  -0.013  0.00  0.00     0.116 A 
ATOM      5  C8  <0> d           2.401   0.026  -0.021  0.00  0.00    -0.043 A 
ATOM      6  C9  <0> d           2.385   1.407  -0.013  0.00  0.00    -0.048 A 
ATOM      7  F1  <0> d           1.227  -2.031  -0.020  0.00  0.00    -0.206 F 
ATOM      8  H6  <0> d          -0.959   1.905   0.017  0.00  0.00     0.087 H 
ATOM      9  H7  <0> d          -0.926  -0.556   0.008  0.00  0.00     0.088 H 
ATOM     10  H8  <0> d           3.342  -0.503  -0.033  0.00  0.00     0.088 H 
ATOM     11  H9  <0> d           3.314   1.958  -0.018  0.00  0.00     0.087 H 
ENDROOT
BRANCH   1  12
ATOM     12  O1  <0> d           1.158   3.446   0.009  0.00  0.00    -0.348 OA
BRANCH  12  13
ATOM     13  C3  <0> d           2.423   4.111   0.001  0.00  0.00     0.040 C 
ATOM     14  H4  <0> d           2.981   3.827  -0.904  0.00  0.00     0.081 H 
ATOM     15  H5  <0> d           2.998   3.817   0.892  0.00  0.00     0.081 H 
BRANCH  13  16
ATOM     16  C2  <0> d           2.207   5.602   0.010  0.00  0.00    -0.089 C 
ATOM     17  C1  <0> d           2.915   6.361   0.810  0.00  0.00    -0.123 C 
ATOM     18  H1  <0> d           2.757   7.450   0.817  0.00  0.00     0.066 H 
ATOM     19  H2  <0> d           3.667   5.910   1.474  0.00  0.00     0.066 H 
ATOM     20  H3  <0> d           1.455   6.053  -0.654  0.00  0.00     0.078 H 
ENDBRANCH  13  16
ENDBRANCH  12  13
ENDBRANCH   1  12
TORSDOF 3
