REMARK  1 active torsions:
REMARK  status: ('A' for Active; 'I' for Inactive)
REMARK    1  A    between atoms: C9_10  and  O1_11 
ROOT
ATOM      1  C1  <0> d           3.234   2.426   3.553  0.00  0.00    -0.082 A 
ATOM      2  C2  <0> d           1.970   1.842   3.600  0.00  0.00    -0.082 A 
ATOM      3  C3  <0> d           1.291   1.541   2.458  0.00  0.00    -0.068 A 
ATOM      4  C4  <0> d           1.871   1.826   1.214  0.00  0.00     0.027 A 
ATOM      5  C5  <0> d           3.160   2.416   1.166  0.00  0.00    -0.020 A 
ATOM      6  C6  <0> d           3.830   2.713   2.361  0.00  0.00    -0.072 A 
ATOM      7  C7  <0> d           3.722   2.687  -0.097  0.00  0.00    -0.055 A 
ATOM      8  C8  <0> d           3.011   2.370  -1.213  0.00  0.00     0.006 A 
ATOM      9  N1  <0> d           1.809   1.814  -1.145  0.00  0.00    -0.236 NA
ATOM     10  C9  <0> d           1.219   1.531  -0.001  0.00  0.00     0.173 A 
ATOM     11  H1  <0> d           3.750   2.654   4.473  0.00  0.00     0.083 H 
ATOM     12  H2  <0> d           1.521   1.626   4.558  0.00  0.00     0.083 H 
ATOM     13  H3  <0> d           0.312   1.089   2.511  0.00  0.00     0.085 H 
ATOM     14  H4  <0> d           4.810   3.166   2.337  0.00  0.00     0.084 H 
ATOM     15  H5  <0> d           4.699   3.140  -0.177  0.00  0.00     0.087 H 
ATOM     16  H6  <0> d           3.439   2.577  -2.183  0.00  0.00     0.114 H 
ENDROOT
BRANCH  10  17
ATOM     17  O1  <0> d          -0.011   0.963   0.007  0.00  0.00    -0.344 OA
ATOM     18  H7  <0> d           0.002  -0.004   0.002  0.00  0.00     0.219 HD
ENDBRANCH  10  17
TORSDOF 1
