REMARK  3 active torsions:
REMARK  status: ('A' for Active; 'I' for Inactive)
REMARK    1  A    between atoms: C1_1  and  N1_2 
REMARK    2  A    between atoms: C2_3  and  C5_8 
REMARK    3  A    between atoms: C3_4  and  N3_7 
ROOT
ATOM      1  N1  <0> d           1.328  -0.364  -0.013  0.00  0.00    -0.266 N 
ATOM      2  C2  <0> d           0.002  -0.004   0.002  0.00  0.00     0.156 A 
ATOM      3  C3  <0> d          -0.017   1.389   0.010  0.00  0.00     0.081 A 
ATOM      4  C4  <0> d           1.334   1.774  -0.001  0.00  0.00     0.049 A 
ATOM      5  N2  <0> d           2.062   0.689  -0.014  0.00  0.00    -0.182 NA
ATOM      6  H4  <0> d           1.705   2.788   0.001  0.00  0.00     0.121 H 
ENDROOT
BRANCH   1   7
ATOM      7  C1  <0> d           1.828  -1.741  -0.025  0.00  0.00     0.003 C 
ATOM      8  H1  <0> d           1.942  -2.076  -1.056  0.00  0.00     0.059 H 
ATOM      9  H2  <0> d           2.793  -1.782   0.479  0.00  0.00     0.059 H 
ATOM     10  H3  <0> d           1.121  -2.390   0.491  0.00  0.00     0.059 H 
ENDBRANCH   1   7
BRANCH   2  11
ATOM     11  C5  <0> d          -1.154  -0.900   0.009  0.00  0.00     0.231 C 
ATOM     12  O1  <0> d          -2.280  -0.441   0.022  0.00  0.00    -0.643 OA
ATOM     13  O2  <0> d          -0.971  -2.237   0.000  0.00  0.00    -0.643 OA
ENDBRANCH   2  11
BRANCH   3  14
ATOM     14  N3  <0> d          -1.134   2.220   0.020  0.00  0.00    -0.396 N 
ATOM     15  H5  <0> d          -2.025   1.836   0.022  0.00  0.00     0.156 HD
ATOM     16  H6  <0> d          -1.022   3.184   0.024  0.00  0.00     0.156 HD
ENDBRANCH   3  14
TORSDOF 3
