REMARK  6 active torsions:
REMARK  status: ('A' for Active; 'I' for Inactive)
REMARK    1  A    between atoms: C1_1  and  C2_2 
REMARK    2  A    between atoms: C2_2  and  C3_3 
REMARK    3  A    between atoms: C3_3  and  C4_5 
REMARK    4  A    between atoms: C3_3  and  O2_9 
REMARK    5  A    between atoms: C4_5  and  C5_6 
REMARK       I    between atoms: C5_6  and  N1_8 
REMARK    6  A    between atoms: O2_9  and  C6_10 
ROOT
ATOM      1  C3  <0> d          -2.406   0.859   0.089  0.00  0.00     0.045 C 
ATOM      2  H1  <0> d          -2.238   0.132  -0.705  0.00  0.00     0.083 H 
ENDROOT
BRANCH   1   3
ATOM      3  C2  <0> d          -3.787   1.494  -0.086  0.00  0.00    -0.044 C 
ATOM      4  H5  <0> d          -3.992   2.155   0.756  0.00  0.00     0.036 H 
ATOM      5  H6  <0> d          -3.809   2.068  -1.012  0.00  0.00     0.036 H 
BRANCH   3   6
ATOM      6  C1  <0> d          -4.851   0.395  -0.142  0.00  0.00    -0.074 C 
ATOM      7  H2  <0> d          -5.834   0.848  -0.266  0.00  0.00     0.027 H 
ATOM      8  H3  <0> d          -4.646  -0.266  -0.984  0.00  0.00     0.027 H 
ATOM      9  H4  <0> d          -4.829  -0.179   0.784  0.00  0.00     0.027 H 
ENDBRANCH   3   6
ENDBRANCH   1   3
BRANCH   1  10
ATOM     10  C4  <0> d          -1.332   1.947   0.020  0.00  0.00     0.033 C 
ATOM     11  H7  <0> d          -1.425   2.490  -0.920  0.00  0.00     0.051 H 
ATOM     12  H8  <0> d          -0.346   1.487   0.078  0.00  0.00     0.051 H 
BRANCH  10  13
ATOM     13  C5  <0> d          -1.510   2.902   1.172  0.00  0.00     0.217 C 
ATOM     14  O1  <0> d          -2.455   2.778   1.922  0.00  0.00    -0.274 OA
ATOM     15  N1  <0> d          -0.616   3.890   1.372  0.00  0.00    -0.370 N 
ATOM     16  H9  <0> d          -0.728   4.502   2.116  0.00  0.00     0.159 HD
ATOM     17  H10 <0> d           0.140   3.989   0.772  0.00  0.00     0.159 HD
ENDBRANCH  10  13
ENDBRANCH   1  10
BRANCH   1  18
ATOM     18  O2  <0> d          -2.340   0.204   1.357  0.00  0.00    -0.390 OA
BRANCH  18  19
ATOM     19  C6  <0> d          -1.387  -0.860   1.413  0.00  0.00     0.004 C 
ATOM     20  H11 <0> d          -1.693  -1.657   0.736  0.00  0.00     0.066 H 
ATOM     21  H12 <0> d          -0.408  -0.486   1.115  0.00  0.00     0.066 H 
ATOM     22  H13 <0> d          -1.334  -1.247   2.430  0.00  0.00     0.066 H 
ENDBRANCH  18  19
ENDBRANCH   1  18
TORSDOF 6
