REMARK  1 active torsions:
REMARK  status: ('A' for Active; 'I' for Inactive)
REMARK    1  A    between atoms: C1_1  and  C2_2 
ROOT
ATOM      1  C2  <0> d           1.207  -0.691  -0.014  0.00  0.00    -0.060 A 
ATOM      2  C3  <0> d           0.002  -0.004   0.002  0.00  0.00    -0.074 A 
ATOM      3  C4  <0> d          -0.017   1.375   0.010  0.00  0.00    -0.047 A 
ATOM      4  C5  <0> d           1.176   2.082   0.002  0.00  0.00     0.105 A 
ATOM      5  C6  <0> d           2.397   1.391  -0.013  0.00  0.00     0.093 A 
ATOM      6  C7  <0> d           2.401  -0.005  -0.021  0.00  0.00    -0.047 A 
ATOM      7  N1  <0> d           3.377   2.335  -0.017  0.00  0.00    -0.234 NA
ATOM      8  C8  <0> d           2.824   3.511  -0.007  0.00  0.00     0.104 A 
ATOM      9  O1  <0> d           1.487   3.397   0.006  0.00  0.00    -0.302 OA
ATOM     10  H4  <0> d          -0.928  -0.553   0.008  0.00  0.00     0.084 H 
ATOM     11  H5  <0> d          -0.959   1.903   0.017  0.00  0.00     0.087 H 
ATOM     12  H6  <0> d           3.336  -0.545  -0.034  0.00  0.00     0.088 H 
ATOM     13  H7  <0> d           3.364   4.446  -0.007  0.00  0.00     0.155 H 
ENDROOT
BRANCH   1  14
ATOM     14  C1  <0> d           1.209  -2.198  -0.022  0.00  0.00    -0.051 C 
ATOM     15  H1  <0> d           1.200  -2.556  -1.051  0.00  0.00     0.033 H 
ATOM     16  H2  <0> d           2.105  -2.563   0.481  0.00  0.00     0.033 H 
ATOM     17  H3  <0> d           0.325  -2.566   0.499  0.00  0.00     0.033 H 
ENDBRANCH   1  14
TORSDOF 1
