REMARK  2 active torsions:
REMARK  status: ('A' for Active; 'I' for Inactive)
REMARK    1  A    between atoms: C1_1  and  C2_2 
REMARK    2  A    between atoms: C4_4  and  C8_9 
ROOT
ATOM      1  C2  <0> d          -3.704   1.897   0.030  0.00  0.00    -0.022 A 
ATOM      2  C3  <0> d          -2.504   1.219   0.021  0.00  0.00    -0.058 A 
ATOM      3  C4  <0> d          -1.302   1.931   0.019  0.00  0.00     0.041 A 
ATOM      4  C5  <0> d          -1.324   3.328   0.032  0.00  0.00    -0.064 A 
ATOM      5  C6  <0> d          -2.530   3.996   0.036  0.00  0.00    -0.044 A 
ATOM      6  C7  <0> d          -3.720   3.284   0.037  0.00  0.00     0.122 A 
ATOM      7  F1  <0> d          -4.899   3.943   0.046  0.00  0.00    -0.206 F 
ATOM      8  H4  <0> d          -2.493   0.139   0.015  0.00  0.00     0.086 H 
ATOM      9  H5  <0> d          -0.398   3.884   0.035  0.00  0.00     0.085 H 
ATOM     10  H6  <0> d          -2.548   5.076   0.042  0.00  0.00     0.088 H 
ENDROOT
BRANCH   1  11
ATOM     11  C1  <0> d          -5.001   1.130   0.031  0.00  0.00    -0.048 C 
ATOM     12  H1  <0> d          -5.309   0.939   1.059  0.00  0.00     0.033 H 
ATOM     13  H2  <0> d          -5.769   1.714  -0.476  0.00  0.00     0.033 H 
ATOM     14  H3  <0> d          -4.864   0.182  -0.488  0.00  0.00     0.033 H 
ENDBRANCH   1  11
BRANCH   3  15
ATOM     15  C8  <0> d          -0.014   1.211   0.009  0.00  0.00     0.209 C 
ATOM     16  O1  <0> d           0.002  -0.004   0.002  0.00  0.00    -0.644 OA
ATOM     17  O2  <0> d           1.143   1.900   0.001  0.00  0.00    -0.644 OA
ENDBRANCH   3  15
TORSDOF 2
