REMARK  4 active torsions:
REMARK  status: ('A' for Active; 'I' for Inactive)
REMARK    1  A    between atoms: C1_1  and  C2_2 
REMARK    2  A    between atoms: C5_5  and  C8_8 
REMARK    3  A    between atoms: C8_8  and  C9_10 
REMARK    4  A    between atoms: C8_8  and  O1_11 
ROOT
ATOM      1  C2  <0> d          -1.238   3.133   0.029  0.00  0.00    -0.062 A 
ATOM      2  C3  <0> d          -1.219   1.751   0.017  0.00  0.00    -0.077 A 
ATOM      3  C4  <0> d          -0.013   1.076   0.008  0.00  0.00    -0.074 A 
ATOM      4  C5  <0> d           1.175   1.783   0.000  0.00  0.00    -0.030 A 
ATOM      5  C6  <0> d           1.156   3.165   0.008  0.00  0.00    -0.074 A 
ATOM      6  C7  <0> d          -0.050   3.840   0.022  0.00  0.00    -0.077 A 
ATOM      7  H5  <0> d          -2.147   1.198   0.019  0.00  0.00     0.084 H 
ATOM      8  H6  <0> d           0.002  -0.004   0.002  0.00  0.00     0.084 H 
ATOM      9  H7  <0> d           2.084   3.718   0.003  0.00  0.00     0.084 H 
ATOM     10  H8  <0> d          -0.065   4.920   0.028  0.00  0.00     0.084 H 
ENDROOT
BRANCH   4  11
ATOM     11  C8  <0> d           2.490   1.048  -0.016  0.00  0.00     0.057 C 
ATOM     12  H1  <0> d           2.349   0.059  -0.454  0.00  0.00     0.089 H 
BRANCH  11  13
ATOM     13  C9  <0> d           3.010   0.901   1.416  0.00  0.00    -0.049 C 
ATOM     14  H9  <0> d           2.288   0.341   2.009  0.00  0.00     0.031 H 
ATOM     15  H10 <0> d           3.961   0.369   1.404  0.00  0.00     0.031 H 
ATOM     16  H11 <0> d           3.152   1.889   1.854  0.00  0.00     0.031 H 
ENDBRANCH  11  13
BRANCH  11  17
ATOM     17  O1  <0> d           3.437   1.782  -0.794  0.00  0.00    -0.391 OA
ATOM     18  H12 <0> d           3.613   2.673  -0.461  0.00  0.00     0.210 HD
ENDBRANCH  11  17
ENDBRANCH   4  11
BRANCH   1  19
ATOM     19  C1  <0> d          -2.553   3.869   0.044  0.00  0.00    -0.051 C 
ATOM     20  H2  <0> d          -2.879   4.051  -0.980  0.00  0.00     0.033 H 
ATOM     21  H3  <0> d          -3.300   3.267   0.561  0.00  0.00     0.033 H 
ATOM     22  H4  <0> d          -2.431   4.820   0.562  0.00  0.00     0.033 H 
ENDBRANCH   1  19
TORSDOF 4
