REMARK  1 active torsions:
REMARK  status: ('A' for Active; 'I' for Inactive)
REMARK    1  A    between atoms: C3_3  and  C5_5 
ROOT
ATOM      1  C1  <0> d          -0.019   1.534   0.011  0.00  0.00    -0.064 C 
ATOM      2  C2  <0> d           1.518   1.476  -0.004  0.00  0.00    -0.054 C 
ATOM      3  C3  <0> d           1.394   0.090   0.649  0.00  0.00     0.040 C 
ATOM      4  C4  <0> d           0.002  -0.004   0.002  0.00  0.00    -0.054 C 
ATOM      5  H1  <0> d          -0.431   1.960   0.925  0.00  0.00     0.033 H 
ATOM      6  H2  <0> d          -0.448   1.969  -0.892  0.00  0.00     0.033 H 
ATOM      7  H3  <0> d           1.944   1.450  -1.007  0.00  0.00     0.034 H 
ATOM      8  H4  <0> d           1.989   2.221   0.637  0.00  0.00     0.034 H 
ATOM      9  H5  <0> d           1.368   0.121   1.738  0.00  0.00     0.053 H 
ATOM     10  H6  <0> d          -0.751  -0.455   0.649  0.00  0.00     0.034 H 
ATOM     11  H7  <0> d           0.014  -0.435  -0.999  0.00  0.00     0.034 H 
ENDROOT
BRANCH   3  12
ATOM     12  C5  <0> d           2.392  -0.935   0.106  0.00  0.00     0.391 C 
ATOM     13  F1  <0> d           3.696  -0.481   0.333  0.00  0.00    -0.171 F 
ATOM     14  F2  <0> d           2.204  -2.159   0.757  0.00  0.00    -0.171 F 
ATOM     15  F3  <0> d           2.189  -1.101  -1.268  0.00  0.00    -0.171 F 
ENDBRANCH   3  12
TORSDOF 1
