REMARK  4 active torsions:
REMARK  status: ('A' for Active; 'I' for Inactive)
REMARK    1  A    between atoms: C1_1  and  C2_2 
REMARK    2  A    between atoms: C2_2  and  O1_3 
REMARK    3  A    between atoms: O1_3  and  C3_4 
REMARK    4  A    between atoms: C6_7  and  N1_11 
ROOT
ATOM      1  C3  <0> d           1.186   2.059   0.002  0.00  0.00     0.071 A 
ATOM      2  C4  <0> d           2.359   1.319  -0.008  0.00  0.00    -0.049 A 
ATOM      3  C5  <0> d           3.582   1.961  -0.022  0.00  0.00    -0.052 A 
ATOM      4  C6  <0> d           3.638   3.348  -0.015  0.00  0.00     0.065 A 
ATOM      5  C7  <0> d           2.462   4.090   0.001  0.00  0.00     0.145 A 
ATOM      6  C8  <0> d           1.239   3.445   0.009  0.00  0.00    -0.011 A 
ATOM      7  F1  <0> d           2.515   5.439   0.007  0.00  0.00    -0.204 F 
ATOM      8  H6  <0> d           2.316   0.239  -0.009  0.00  0.00     0.087 H 
ATOM      9  H7  <0> d           4.495   1.384  -0.033  0.00  0.00     0.087 H 
ATOM     10  H8  <0> d           0.325   4.020   0.021  0.00  0.00     0.092 H 
ENDROOT
BRANCH   1  11
ATOM     11  O1  <0> d          -0.017   1.425   0.010  0.00  0.00    -0.351 OA
BRANCH  11  12
ATOM     12  C2  <0> d           0.002  -0.004   0.002  0.00  0.00     0.023 C 
ATOM     13  H4  <0> d           0.512  -0.356  -0.895  0.00  0.00     0.074 H 
ATOM     14  H5  <0> d           0.529  -0.365   0.885  0.00  0.00     0.074 H 
BRANCH  12  15
ATOM     15  C1  <0> d          -1.433  -0.534   0.013  0.00  0.00    -0.056 C 
ATOM     16  H1  <0> d          -1.419  -1.623   0.007  0.00  0.00     0.030 H 
ATOM     17  H2  <0> d          -1.944  -0.182   0.910  0.00  0.00     0.030 H 
ATOM     18  H3  <0> d          -1.960  -0.173  -0.870  0.00  0.00     0.030 H 
ENDBRANCH  12  15
ENDBRANCH  11  12
ENDBRANCH   1  11
BRANCH   4  19
ATOM     19  N1  <0> d           4.878   3.999  -0.024  0.00  0.00    -0.397 N 
ATOM     20  H9  <0> d           4.917   4.968  -0.019  0.00  0.00     0.156 HD
ATOM     21  H10 <0> d           5.698   3.481  -0.034  0.00  0.00     0.156 HD
ENDBRANCH   4  19
TORSDOF 4
