REMARK  8 active torsions:
REMARK  status: ('A' for Active; 'I' for Inactive)
REMARK    1  A    between atoms: C1_1  and  C2_2 
REMARK    2  A    between atoms: C2_2  and  O1_3 
REMARK    3  A    between atoms: O1_3  and  C3_4 
REMARK    4  A    between atoms: C3_4  and  C4_6 
REMARK    5  A    between atoms: C3_4  and  O2_7 
REMARK    6  A    between atoms: O2_7  and  C5_8 
REMARK    7  A    between atoms: C5_8  and  C6_9 
REMARK    8  A    between atoms: C5_8  and  C7_10 
ROOT
ATOM      1  C3  <0> d           0.196  -1.779  -1.533  0.00  0.00     0.128 C 
ATOM      2  H1  <0> d          -0.851  -1.863  -1.826  0.00  0.00     0.128 H 
ENDROOT
BRANCH   1   3
ATOM      3  O1  <0> d           0.403  -2.473  -0.301  0.00  0.00    -0.362 OA
BRANCH   3   4
ATOM      4  C2  <0> d          -0.571  -2.180   0.703  0.00  0.00     0.019 C 
ATOM      5  H5  <0> d          -0.608  -1.103   0.870  0.00  0.00     0.073 H 
ATOM      6  H6  <0> d          -1.549  -2.530   0.373  0.00  0.00     0.073 H 
BRANCH   4   7
ATOM      7  C1  <0> d          -0.190  -2.885   2.006  0.00  0.00    -0.056 C 
ATOM      8  H2  <0> d          -0.153  -3.962   1.839  0.00  0.00     0.030 H 
ATOM      9  H3  <0> d           0.789  -2.535   2.335  0.00  0.00     0.030 H 
ATOM     10  H4  <0> d          -0.932  -2.661   2.771  0.00  0.00     0.030 H 
ENDBRANCH   4   7
ENDBRANCH   3   4
ENDBRANCH   1   3
BRANCH   1  11
ATOM     11  C4  <0> d           1.081  -2.393  -2.619  0.00  0.00    -0.031 C 
ATOM     12  H7  <0> d           0.789  -3.430  -2.783  0.00  0.00     0.034 H 
ATOM     13  H8  <0> d           0.961  -1.831  -3.546  0.00  0.00     0.034 H 
ATOM     14  H9  <0> d           2.123  -2.354  -2.303  0.00  0.00     0.034 H 
ENDBRANCH   1  11
BRANCH   1  15
ATOM     15  O2  <0> d           0.534  -0.401  -1.365  0.00  0.00    -0.357 OA
BRANCH  15  16
ATOM     16  C5  <0> d           1.915  -0.172  -1.078  0.00  0.00     0.034 C 
ATOM     17  H10 <0> d           2.395  -1.117  -0.826  0.00  0.00     0.082 H 
BRANCH  16  18
ATOM     18  C6  <0> d           2.037   0.793   0.103  0.00  0.00    -0.052 C 
ATOM     19  H11 <0> d           1.557   1.739  -0.149  0.00  0.00     0.030 H 
ATOM     20  H12 <0> d           1.551   0.361   0.978  0.00  0.00     0.030 H 
ATOM     21  H13 <0> d           3.090   0.968   0.322  0.00  0.00     0.030 H 
ENDBRANCH  16  18
BRANCH  16  22
ATOM     22  C7  <0> d           2.597   0.436  -2.305  0.00  0.00    -0.052 C 
ATOM     23  H14 <0> d           2.589  -0.288  -3.121  0.00  0.00     0.030 H 
ATOM     24  H15 <0> d           2.061   1.334  -2.612  0.00  0.00     0.030 H 
ATOM     25  H16 <0> d           3.627   0.694  -2.058  0.00  0.00     0.030 H 
ENDBRANCH  16  22
ENDBRANCH  15  16
ENDBRANCH   1  15
TORSDOF 8
