REMARK  4 active torsions:
REMARK  status: ('A' for Active; 'I' for Inactive)
REMARK    1  A    between atoms: C1_1  and  C2_2 
REMARK    2  A    between atoms: C2_2  and  C3_3 
REMARK    3  A    between atoms: C3_3  and  C4_5 
REMARK    4  A    between atoms: C3_3  and  N1_7 
REMARK       I    between atoms: N1_7  and  C5_8 
REMARK       I    between atoms: C5_8  and  N2_10 
ROOT
ATOM      1  C3  <0> d          -1.329   1.940   0.019  0.00  0.00     0.097 C 
ATOM      2  H1  <0> d          -1.391   2.561   0.913  0.00  0.00     0.089 H 
ENDROOT
BRANCH   1   3
ATOM      3  C2  <0> d          -1.428   2.825  -1.225  0.00  0.00    -0.040 C 
ATOM      4  H5  <0> d          -0.562   3.485  -1.272  0.00  0.00     0.036 H 
ATOM      5  H6  <0> d          -1.456   2.198  -2.116  0.00  0.00     0.036 H 
BRANCH   3   6
ATOM      6  C1  <0> d          -2.705   3.665  -1.153  0.00  0.00    -0.074 C 
ATOM      7  H2  <0> d          -3.572   3.005  -1.107  0.00  0.00     0.027 H 
ATOM      8  H3  <0> d          -2.678   4.292  -0.262  0.00  0.00     0.027 H 
ATOM      9  H4  <0> d          -2.776   4.295  -2.039  0.00  0.00     0.027 H 
ENDBRANCH   3   6
ENDBRANCH   1   3
BRANCH   1  10
ATOM     10  C4  <0> d          -0.014   1.204   0.009  0.00  0.00     0.196 C 
ATOM     11  O1  <0> d           0.002  -0.004   0.002  0.00  0.00    -0.646 OA
ATOM     12  O3  <0> d           1.139   1.891   0.001  0.00  0.00    -0.646 OA
ENDBRANCH   1  10
BRANCH   1  13
ATOM     13  N1  <0> d          -2.430   0.973   0.019  0.00  0.00    -0.329 N 
ATOM     14  C5  <0> d          -3.632   1.320   0.520  0.00  0.00     0.314 C 
ATOM     15  O2  <0> d          -3.803   2.436   0.972  0.00  0.00    -0.248 OA
ATOM     16  N2  <0> d          -4.644   0.430   0.520  0.00  0.00    -0.352 N 
ATOM     17  H8  <0> d          -4.508  -0.460   0.159  0.00  0.00     0.160 HD
ATOM     18  H9  <0> d          -5.510   0.680   0.880  0.00  0.00     0.160 HD
ATOM     19  H7  <0> d          -2.293   0.083  -0.342  0.00  0.00     0.165 HD
ENDBRANCH   1  13
TORSDOF 4
