REMARK  1 active torsions:
REMARK  status: ('A' for Active; 'I' for Inactive)
REMARK    1  A    between atoms: C1_1  and  C2_2 
ROOT
ATOM      1  C2  <0> d           1.177   1.782   0.000  0.00  0.00    -0.023 A 
ATOM      2  C3  <0> d          -0.013   1.076   0.008  0.00  0.00    -0.073 A 
ATOM      3  C4  <0> d          -1.217   1.747   0.017  0.00  0.00    -0.062 A 
ATOM      4  C5  <0> d          -1.236   3.144   0.030  0.00  0.00     0.047 A 
ATOM      5  C6  <0> d          -0.033   3.852   0.022  0.00  0.00    -0.025 A 
ATOM      6  C7  <0> d           1.167   3.167   0.007  0.00  0.00     0.123 A 
ATOM      7  F1  <0> d           2.333   3.850  -0.000  0.00  0.00    -0.206 F 
ATOM      8  C8  <0> d          -2.484   3.846   0.045  0.00  0.00     0.099 C 
ATOM      9  N1  <0> d          -3.474   4.403   0.056  0.00  0.00    -0.191 NA
ATOM     10  H4  <0> d           0.002  -0.004   0.002  0.00  0.00     0.084 H 
ATOM     11  H5  <0> d          -2.145   1.194   0.019  0.00  0.00     0.085 H 
ATOM     12  H6  <0> d          -0.041   4.932   0.027  0.00  0.00     0.090 H 
ENDROOT
BRANCH   1  13
ATOM     13  C1  <0> d           2.489   1.041  -0.016  0.00  0.00    -0.048 C 
ATOM     14  H1  <0> d           2.796   0.868  -1.048  0.00  0.00     0.033 H 
ATOM     15  H2  <0> d           3.248   1.635   0.494  0.00  0.00     0.033 H 
ATOM     16  H3  <0> d           2.373   0.085   0.494  0.00  0.00     0.033 H 
ENDBRANCH   1  13
TORSDOF 1
