REMARK  4 active torsions:
REMARK  status: ('A' for Active; 'I' for Inactive)
REMARK    1  A    between atoms: C1_1  and  C2_2 
REMARK    2  A    between atoms: C2_2  and  N1_3 
REMARK    3  A    between atoms: N1_3  and  C3_4 
REMARK    4  A    between atoms: C4_5  and  C6_12 
ROOT
ATOM      1  C3  <0> d           1.207   2.013   0.001  0.00  0.00     0.155 A 
ATOM      2  C4  <0> d          -0.016   1.301   0.009  0.00  0.00     0.096 A 
ATOM      3  N2  <0> d           0.002  -0.004   0.002  0.00  0.00    -0.172 NA
ATOM      4  N3  <0> d           1.115  -0.649  -0.012  0.00  0.00    -0.227 N 
ATOM      5  H1  <0> d           1.101  -1.619  -0.018  0.00  0.00     0.194 HD
ATOM      6  C5  <0> d           2.297  -0.008  -0.020  0.00  0.00     0.364 A 
ATOM      7  O1  <0> d           3.334  -0.650  -0.033  0.00  0.00    -0.243 OA
ATOM      8  N4  <0> d           2.344   1.327  -0.013  0.00  0.00    -0.173 NA
ENDROOT
BRANCH   1   9
ATOM      9  N1  <0> d           1.218   3.388   0.008  0.00  0.00    -0.373 N 
ATOM     10  H7  <0> d           0.382   3.880   0.018  0.00  0.00     0.161 HD
BRANCH   9  11
ATOM     11  C2  <0> d           2.492   4.111  -0.000  0.00  0.00    -0.009 C 
ATOM     12  H5  <0> d           3.070   3.839   0.883  0.00  0.00     0.063 H 
ATOM     13  H6  <0> d           3.054   3.848  -0.897  0.00  0.00     0.063 H 
BRANCH  11  14
ATOM     14  C1  <0> d           2.224   5.617   0.010  0.00  0.00    -0.061 C 
ATOM     15  H2  <0> d           1.647   5.890  -0.873  0.00  0.00     0.029 H 
ATOM     16  H3  <0> d           1.663   5.881   0.907  0.00  0.00     0.029 H 
ATOM     17  H4  <0> d           3.172   6.155   0.004  0.00  0.00     0.029 H 
ENDBRANCH  11  14
ENDBRANCH   9  11
ENDBRANCH   1   9
BRANCH   2  18
ATOM     18  C6  <0> d          -1.327   2.043   0.019  0.00  0.00    -0.030 C 
ATOM     19  H8  <0> d          -2.150   1.327   0.019  0.00  0.00     0.035 H 
ATOM     20  H9  <0> d          -1.386   2.664   0.913  0.00  0.00     0.035 H 
ATOM     21  H10 <0> d          -1.395   2.674  -0.867  0.00  0.00     0.035 H 
ENDBRANCH   2  18
TORSDOF 4
