REMARK  2 active torsions:
REMARK  status: ('A' for Active; 'I' for Inactive)
REMARK    1  A    between atoms: C8_8  and  O2_13 
REMARK    2  A    between atoms: C9_10  and  O1_12 
ROOT
ATOM      1  C1  <0> d          -1.564  -1.048  -4.365  0.00  0.00    -0.082 A 
ATOM      2  C2  <0> d          -2.779  -1.068  -3.705  0.00  0.00    -0.082 A 
ATOM      3  C3  <0> d          -2.821  -0.920  -2.333  0.00  0.00    -0.074 A 
ATOM      4  C4  <0> d          -1.649  -0.752  -1.614  0.00  0.00    -0.021 A 
ATOM      5  C5  <0> d          -0.434  -0.732  -2.273  0.00  0.00    -0.047 A 
ATOM      6  C6  <0> d          -0.394  -0.880  -3.650  0.00  0.00    -0.076 A 
ATOM      7  C7  <0> d           0.687  -0.536  -1.275  0.00  0.00    -0.014 C 
ATOM      8  C8  <0> d           0.002  -0.004   0.002  0.00  0.00     0.068 C 
ATOM      9  H1  <0> d           0.495  -0.388   0.895  0.00  0.00     0.087 H 
ATOM     10  C9  <0> d          -1.427  -0.572  -0.128  0.00  0.00     0.086 C 
ATOM     11  H2  <0> d          -2.152   0.133   0.280  0.00  0.00     0.094 H 
ATOM     12  H3  <0> d          -1.529  -1.163  -5.438  0.00  0.00     0.083 H 
ATOM     13  H4  <0> d          -3.694  -1.199  -4.263  0.00  0.00     0.083 H 
ATOM     14  H5  <0> d          -3.770  -0.936  -1.819  0.00  0.00     0.084 H 
ATOM     15  H6  <0> d           0.555  -0.864  -4.165  0.00  0.00     0.084 H 
ATOM     16  H7  <0> d           1.405   0.192  -1.650  0.00  0.00     0.044 H 
ATOM     17  H8  <0> d           1.183  -1.485  -1.070  0.00  0.00     0.044 H 
ENDROOT
BRANCH   8  18
ATOM     18  O2  <0> d          -0.017   1.425   0.010  0.00  0.00    -0.392 OA
ATOM     19  H10 <0> d           0.861   1.830   0.004  0.00  0.00     0.210 HD
ENDBRANCH   8  18
BRANCH  10  20
ATOM     20  O1  <0> d          -1.525  -1.829   0.544  0.00  0.00    -0.388 OA
ATOM     21  H9  <0> d          -2.402  -2.234   0.497  0.00  0.00     0.210 HD
ENDBRANCH  10  20
TORSDOF 2
