REMARK  2 active torsions:
REMARK  status: ('A' for Active; 'I' for Inactive)
REMARK    1  A    between atoms: C1_1  and  C2_2 
REMARK    2  A    between atoms: C4_4  and  C6_10 
ROOT
ATOM      1  C2  <0> d          -2.585   4.085   0.038  0.00  0.00     0.038 A 
ATOM      2  C3  <0> d          -1.341   3.433   0.033  0.00  0.00    -0.027 A 
ATOM      3  C4  <0> d          -1.310   2.066   0.019  0.00  0.00     0.115 A 
ATOM      4  N1  <0> d          -2.493   1.376   0.021  0.00  0.00    -0.301 N 
ATOM      5  H1  <0> d          -2.487   0.276   0.015  0.00  0.00     0.171 HD
ATOM      6  C5  <0> d          -3.662   2.043   0.030  0.00  0.00     0.347 A 
ATOM      7  O1  <0> d          -4.709   1.419   0.032  0.00  0.00    -0.245 OA
ATOM      8  N2  <0> d          -3.694   3.381   0.039  0.00  0.00    -0.199 NA
ATOM      9  H5  <0> d          -0.423   4.002   0.036  0.00  0.00     0.090 H 
ENDROOT
BRANCH   1  10
ATOM     10  C1  <0> d          -2.647   5.591   0.047  0.00  0.00    -0.035 C 
ATOM     11  H2  <0> d          -1.626   6.000   0.045  0.00  0.00     0.035 H 
ATOM     12  H3  <0> d          -3.176   5.930   0.950  0.00  0.00     0.035 H 
ATOM     13  H4  <0> d          -3.184   5.941  -0.846  0.00  0.00     0.035 H 
ENDBRANCH   1  10
BRANCH   3  14
ATOM     14  C6  <0> d          -0.016   1.343   0.009  0.00  0.00     0.227 C 
ATOM     15  O2  <0> d           1.027   1.964   0.003  0.00  0.00    -0.643 OA
ATOM     16  O3  <0> d           0.002  -0.004   0.002  0.00  0.00    -0.643 OA
ENDBRANCH   3  14
TORSDOF 2
