REMARK  2 active torsions:
REMARK  status: ('A' for Active; 'I' for Inactive)
REMARK    1  A    between atoms: C1_1  and  C2_2 
REMARK    2  A    between atoms: C5_7  and  C6_10 
ROOT
ATOM      1  C2  <0> d           0.002  -0.004   0.002  0.00  0.00     0.040 C 
ATOM      2  H1  <0> d           0.481  -0.357  -0.911  0.00  0.00     0.083 H 
ATOM      3  C3  <0> d           0.789  -0.498   1.221  0.00  0.00    -0.021 C 
ATOM      4  C4  <0> d           2.175   0.157   1.213  0.00  0.00     0.025 C 
ATOM      5  O1  <0> d           2.018   1.577   1.144  0.00  0.00    -0.362 OA
ATOM      6  C5  <0> d           1.283   2.021   0.001  0.00  0.00     0.128 C 
ATOM      7  H2  <0> d           1.811   1.726  -0.907  0.00  0.00     0.128 H 
ATOM      8  O2  <0> d          -0.017   1.427   0.010  0.00  0.00    -0.357 OA
ATOM      9  H6  <0> d           0.260  -0.222   2.133  0.00  0.00     0.040 H 
ATOM     10  H7  <0> d           0.897  -1.581   1.172  0.00  0.00     0.040 H 
ATOM     11  H8  <0> d           2.708  -0.107   2.127  0.00  0.00     0.074 H 
ATOM     12  H9  <0> d           2.738  -0.191   0.347  0.00  0.00     0.074 H 
ENDROOT
BRANCH   1  13
ATOM     13  C1  <0> d          -1.431  -0.536   0.068  0.00  0.00    -0.052 C 
ATOM     14  H3  <0> d          -1.992  -0.176  -0.794  0.00  0.00     0.030 H 
ATOM     15  H4  <0> d          -1.415  -1.626   0.062  0.00  0.00     0.030 H 
ATOM     16  H5  <0> d          -1.907  -0.185   0.984  0.00  0.00     0.030 H 
ENDBRANCH   1  13
BRANCH   6  17
ATOM     17  C6  <0> d           1.148   3.544   0.041  0.00  0.00    -0.031 C 
ATOM     18  H10 <0> d           0.621   3.839   0.948  0.00  0.00     0.034 H 
ATOM     19  H11 <0> d           2.140   3.997   0.033  0.00  0.00     0.034 H 
ATOM     20  H12 <0> d           0.588   3.882  -0.831  0.00  0.00     0.034 H 
ENDBRANCH   6  17
TORSDOF 2
