REMARK  3 active torsions:
REMARK  status: ('A' for Active; 'I' for Inactive)
REMARK    1  A    between atoms: C1_1  and  C2_2 
REMARK    2  A    between atoms: C4_4  and  C7_9 
REMARK    3  A    between atoms: C6_7  and  N2_8 
ROOT
ATOM      1  C2  <0> d           1.173   1.793   0.001  0.00  0.00    -0.032 A 
ATOM      2  C3  <0> d          -0.013   1.076   0.008  0.00  0.00    -0.052 A 
ATOM      3  C4  <0> d          -1.214   1.759   0.017  0.00  0.00     0.031 A 
ATOM      4  N1  <0> d          -1.245   3.077   0.029  0.00  0.00    -0.264 NA
ATOM      5  C5  <0> d          -0.141   3.797   0.023  0.00  0.00     0.028 A 
ATOM      6  C6  <0> d           1.105   3.184   0.008  0.00  0.00     0.049 A 
ATOM      7  H4  <0> d           0.002  -0.004   0.002  0.00  0.00     0.087 H 
ATOM      8  H5  <0> d          -0.206   4.875   0.029  0.00  0.00     0.118 H 
ENDROOT
BRANCH   1   9
ATOM      9  C1  <0> d           2.503   1.085  -0.015  0.00  0.00    -0.049 C 
ATOM     10  H1  <0> d           2.814   0.919  -1.046  0.00  0.00     0.033 H 
ATOM     11  H2  <0> d           3.247   1.697   0.495  0.00  0.00     0.033 H 
ATOM     12  H3  <0> d           2.410   0.126   0.495  0.00  0.00     0.033 H 
ENDBRANCH   1   9
BRANCH   6  13
ATOM     13  N2  <0> d           2.273   3.950   0.002  0.00  0.00    -0.398 N 
ATOM     14  H6  <0> d           3.139   3.515  -0.008  0.00  0.00     0.156 HD
ATOM     15  H7  <0> d           2.217   4.919   0.007  0.00  0.00     0.156 HD
ENDBRANCH   6  13
BRANCH   3  16
ATOM     16  C7  <0> d          -2.508   0.985   0.020  0.00  0.00    -0.035 C 
ATOM     17  H8  <0> d          -2.815   0.794   1.048  0.00  0.00     0.035 H 
ATOM     18  H9  <0> d          -3.279   1.566  -0.487  0.00  0.00     0.035 H 
ATOM     19  H10 <0> d          -2.366   0.038  -0.500  0.00  0.00     0.035 H 
ENDBRANCH   3  16
TORSDOF 3
