REMARK  0 active torsions:
REMARK  status: ('A' for Active; 'I' for Inactive)
ROOT
ATOM      1  C1  <0> d           2.364   1.296  -0.014  0.00  0.00    -0.046 A 
ATOM      2  C2  <0> d           2.279  -0.087  -0.020  0.00  0.00     0.025 A 
ATOM      3  N1  <0> d           1.097  -0.673  -0.012  0.00  0.00    -0.163 NA
ATOM      4  N2  <0> d           0.002  -0.004   0.002  0.00  0.00    -0.162 NA
ATOM      5  C3  <0> d          -0.016   1.315   0.009  0.00  0.00     0.040 A 
ATOM      6  C4  <0> d           1.178   2.021   0.002  0.00  0.00     0.031 A 
ATOM      7 Br1  <0> d           1.192   3.912   0.011  0.00  0.00    -0.050 Br
ATOM      8  H1  <0> d           3.321   1.795  -0.020  0.00  0.00     0.087 H 
ATOM      9  H2  <0> d           3.179  -0.684  -0.032  0.00  0.00     0.117 H 
ATOM     10  H3  <0> d          -0.958   1.843   0.017  0.00  0.00     0.119 H 
ENDROOT
TORSDOF 0
