REMARK  5 active torsions:
REMARK  status: ('A' for Active; 'I' for Inactive)
REMARK    1  A    between atoms: C1_1  and  C2_2 
REMARK    2  A    between atoms: C4_7  and  C5_8 
REMARK    3  A    between atoms: C5_8  and  C6_9 
REMARK    4  A    between atoms: C6_9  and  C7_10 
REMARK    5  A    between atoms: C6_9  and  C8_11 
ROOT
ATOM      1  C5  <0> d           3.626   0.702  -0.030  0.00  0.00    -0.022 C 
ATOM      2  H6  <0> d           3.981   1.635   0.406  0.00  0.00     0.042 H 
ATOM      3  H7  <0> d           4.007  -0.139   0.551  0.00  0.00     0.042 H 
ENDROOT
BRANCH   1   4
ATOM      4  C4  <0> d           2.119   0.681  -0.015  0.00  0.00     0.035 A 
ATOM      5  C2  <0> d           1.337  -0.423  -0.013  0.00  0.00    -0.019 A 
ATOM      6  C3  <0> d           0.002  -0.004   0.002  0.00  0.00     0.029 A 
ATOM      7  N1  <0> d          -0.016   1.304   0.009  0.00  0.00    -0.187 NA
ATOM      8  H5  <0> d          -0.864  -0.649   0.006  0.00  0.00     0.118 H 
ATOM      9  N2  <0> d           1.309   1.760  -0.001  0.00  0.00    -0.282 N 
ATOM     10  H1  <0> d           1.602   2.716   0.001  0.00  0.00     0.189 HD
BRANCH   5  11
ATOM     11  C1  <0> d           1.817  -1.851  -0.026  0.00  0.00    -0.048 C 
ATOM     12  H2  <0> d           1.923  -2.190  -1.056  0.00  0.00     0.033 H 
ATOM     13  H3  <0> d           2.782  -1.914   0.478  0.00  0.00     0.033 H 
ATOM     14  H4  <0> d           1.095  -2.482   0.492  0.00  0.00     0.033 H 
ENDBRANCH   5  11
ENDBRANCH   1   4
BRANCH   1  15
ATOM     15  C6  <0> d           4.123   0.591  -1.473  0.00  0.00    -0.056 C 
ATOM     16  H8  <0> d           3.696  -0.298  -1.937  0.00  0.00     0.039 H 
BRANCH  15  17
ATOM     17  C7  <0> d           3.693   1.833  -2.256  0.00  0.00    -0.073 C 
ATOM     18  H9  <0> d           4.047   1.754  -3.284  0.00  0.00     0.028 H 
ATOM     19  H10 <0> d           2.606   1.907  -2.251  0.00  0.00     0.028 H 
ATOM     20  H11 <0> d           4.120   2.722  -1.792  0.00  0.00     0.028 H 
ENDBRANCH  15  17
BRANCH  15  21
ATOM     21  C8  <0> d           5.649   0.487  -1.480  0.00  0.00    -0.073 C 
ATOM     22  H12 <0> d           5.956  -0.398  -0.921  0.00  0.00     0.028 H 
ATOM     23  H13 <0> d           6.003   0.408  -2.507  0.00  0.00     0.028 H 
ATOM     24  H14 <0> d           6.077   1.375  -1.015  0.00  0.00     0.028 H 
ENDBRANCH  15  21
ENDBRANCH   1  15
TORSDOF 5
