REMARK  5 active torsions:
REMARK  status: ('A' for Active; 'I' for Inactive)
REMARK    1  A    between atoms: C1_1  and  C2_2 
REMARK    2  A    between atoms: C2_2  and  C3_3 
REMARK    3  A    between atoms: C3_3  and  C4_5 
REMARK    4  A    between atoms: C3_3  and  C5_6 
REMARK    5  A    between atoms: C5_6  and  C6_8 
ROOT
ATOM      1  C6  <0> d          -0.018   1.468   0.010  0.00  0.00     0.070 C 
ATOM      2  C7  <0> d           0.002  -0.004   0.002  0.00  0.00     0.066 C 
ATOM      3  N1  <0> d           0.018  -1.140  -0.004  0.00  0.00    -0.197 NA
ATOM      4  H10 <0> d          -0.550   1.832  -0.881  0.00  0.00     0.066 H 
ATOM      5  H11 <0> d           1.014   1.849   0.002  0.00  0.00     0.066 H 
ENDROOT
BRANCH   1   6
ATOM      6  C5  <0> d          -0.723   1.954   1.250  0.00  0.00     0.143 C 
ATOM      7  O1  <0> d          -1.164   1.159   2.045  0.00  0.00    -0.297 OA
BRANCH   6   8
ATOM      8  C3  <0> d          -0.879   3.432   1.498  0.00  0.00     0.001 C 
ATOM      9  H1  <0> d          -1.025   3.937   0.532  0.00  0.00     0.051 H 
BRANCH   8  10
ATOM     10  C2  <0> d          -2.091   3.673   2.400  0.00  0.00    -0.059 C 
ATOM     11  H5  <0> d          -1.905   3.230   3.389  0.00  0.00     0.033 H 
ATOM     12  H6  <0> d          -2.981   3.208   1.951  0.00  0.00     0.033 H 
BRANCH  10  13
ATOM     13  C1  <0> d          -2.323   5.178   2.550  0.00  0.00    -0.076 C 
ATOM     14  H2  <0> d          -3.195   5.351   3.199  0.00  0.00     0.027 H 
ATOM     15  H3  <0> d          -2.509   5.621   1.561  0.00  0.00     0.027 H 
ATOM     16  H4  <0> d          -1.434   5.643   3.000  0.00  0.00     0.027 H 
ENDBRANCH  10  13
ENDBRANCH   8  10
BRANCH   8  17
ATOM     17  C4  <0> d           0.380   3.970   2.181  0.00  0.00    -0.066 C 
ATOM     18  H7  <0> d           1.252   3.797   1.532  0.00  0.00     0.028 H 
ATOM     19  H8  <0> d           0.527   3.451   3.140  0.00  0.00     0.028 H 
ATOM     20  H9  <0> d           0.267   5.049   2.362  0.00  0.00     0.028 H 
ENDBRANCH   8  17
ENDBRANCH   6   8
ENDBRANCH   1   6
TORSDOF 5
