REMARK  1 active torsions:
REMARK  status: ('A' for Active; 'I' for Inactive)
REMARK    1  A    between atoms: C5_5  and  N2_10 
ROOT
ATOM      1  C1  <0> d           1.598  -0.131  -1.907  0.00  0.00    -0.065 C 
ATOM      2  C2  <0> d           0.231  -0.548  -1.328  0.00  0.00    -0.065 C 
ATOM      3  C3  <0> d           0.002  -0.004   0.002  0.00  0.00    -0.062 C 
ATOM      4  C4  <0> d          -0.019   1.538   0.011  0.00  0.00    -0.019 C 
ATOM      5  C5  <0> d           1.401   2.035  -0.000  0.00  0.00     0.242 C 
ATOM      6  C6  <0> d           1.910   2.335  -1.423  0.00  0.00    -0.019 C 
ATOM      7  C7  <0> d           1.480   1.268  -2.449  0.00  0.00    -0.062 C 
ATOM      8  C8  <0> d           2.268   1.014   0.610  0.00  0.00     0.101 C 
ATOM      9  N1  <0> d           2.937   0.226   1.081  0.00  0.00    -0.195 NA
ATOM     10  H1  <0> d           1.886  -0.815  -2.719  0.00  0.00     0.033 H 
ATOM     11  H2  <0> d           2.363  -0.155  -1.118  0.00  0.00     0.033 H 
ATOM     12  H3  <0> d          -0.573  -0.186  -1.986  0.00  0.00     0.033 H 
ATOM     13  H4  <0> d           0.181  -1.645  -1.259  0.00  0.00     0.033 H 
ATOM     14  H5  <0> d          -0.967  -0.359   0.382  0.00  0.00     0.033 H 
ATOM     15  H6  <0> d           0.804  -0.337   0.677  0.00  0.00     0.033 H 
ATOM     16  H7  <0> d          -0.551   1.903  -0.881  0.00  0.00     0.038 H 
ATOM     17  H8  <0> d          -0.534   1.893   0.915  0.00  0.00     0.038 H 
ATOM     18  H9  <0> d           1.511   3.304  -1.759  0.00  0.00     0.038 H 
ATOM     19  H10 <0> d           3.009   2.373  -1.419  0.00  0.00     0.038 H 
ATOM     20  H11 <0> d           2.122   1.373  -3.336  0.00  0.00     0.033 H 
ATOM     21  H12 <0> d           0.435   1.468  -2.727  0.00  0.00     0.033 H 
ENDROOT
BRANCH   5  22
ATOM     22  N2  <0> d           1.481   3.264   0.801  0.00  0.00     0.102 N 
ATOM     23  H13 <0> d           2.516   3.636   0.800  0.00  0.00     0.315 HD
ATOM     24  H14 <0> d           0.816   4.027   0.370  0.00  0.00     0.315 HD
ENDBRANCH   5  22
TORSDOF 1
