REMARK  4 active torsions:
REMARK  status: ('A' for Active; 'I' for Inactive)
REMARK    1  A    between atoms: C1_1  and  O1_2 
REMARK    2  A    between atoms: O1_2  and  C2_3 
REMARK    3  A    between atoms: C5_6  and  C8_9 
REMARK    4  A    between atoms: C8_9  and  C9_10 
ROOT
ATOM      1  C2  <0> d           0.606  -0.607  -1.056  0.00  0.00     0.068 A 
ATOM      2  C3  <0> d           1.173   0.161  -2.062  0.00  0.00    -0.050 A 
ATOM      3  C4  <0> d           1.786  -0.455  -3.136  0.00  0.00    -0.074 A 
ATOM      4  C5  <0> d           1.835  -1.835  -3.209  0.00  0.00    -0.055 A 
ATOM      5  C6  <0> d           1.270  -2.602  -2.207  0.00  0.00    -0.074 A 
ATOM      6  C7  <0> d           0.661  -1.992  -1.128  0.00  0.00    -0.050 A 
ATOM      7  H4  <0> d           1.135   1.238  -2.007  0.00  0.00     0.087 H 
ATOM      8  H5  <0> d           2.228   0.142  -3.920  0.00  0.00     0.084 H 
ATOM      9  H6  <0> d           1.309  -3.680  -2.266  0.00  0.00     0.084 H 
ATOM     10  H7  <0> d           0.224  -2.591  -0.343  0.00  0.00     0.087 H 
ENDROOT
BRANCH   4  11
ATOM     11  C8  <0> d           2.505  -2.503  -4.381  0.00  0.00    -0.027 C 
ATOM     12  H8  <0> d           2.028  -3.465  -4.573  0.00  0.00     0.045 H 
ATOM     13  H9  <0> d           2.411  -1.869  -5.263  0.00  0.00     0.045 H 
BRANCH  11  14
ATOM     14  C9  <0> d           3.963  -2.719  -4.071  0.00  0.00    -0.108 C 
ATOM     15  C10 <0> d           4.481  -3.919  -4.160  0.00  0.00    -0.124 C 
ATOM     16  H11 <0> d           5.527  -4.074  -3.938  0.00  0.00     0.066 H 
ATOM     17  H12 <0> d           3.863  -4.754  -4.456  0.00  0.00     0.066 H 
ATOM     18  H10 <0> d           4.582  -1.885  -3.775  0.00  0.00     0.076 H 
ENDBRANCH  11  14
ENDBRANCH   4  11
BRANCH   1  19
ATOM     19  O1  <0> d           0.002  -0.004   0.002  0.00  0.00    -0.356 OA
BRANCH  19  20
ATOM     20  C1  <0> d          -0.017   1.425   0.010  0.00  0.00     0.010 C 
ATOM     21  H1  <0> d           1.005   1.802   0.002  0.00  0.00     0.066 H 
ATOM     22  H2  <0> d          -0.544   1.786  -0.873  0.00  0.00     0.066 H 
ATOM     23  H3  <0> d          -0.527   1.776   0.907  0.00  0.00     0.066 H 
ENDBRANCH  19  20
ENDBRANCH   1  19
TORSDOF 4
