REMARK  4 active torsions:
REMARK  status: ('A' for Active; 'I' for Inactive)
REMARK    1  A    between atoms: C1_1  and  C2_2 
REMARK    2  A    between atoms: C5_5  and  C9_11 
REMARK    3  A    between atoms: C6_7  and  C7_8 
REMARK    4  A    between atoms: C7_8  and  C8_10 
ROOT
ATOM      1  C2  <0> d          -0.235  -0.028   0.037  0.00  0.00    -0.029 A 
ATOM      2  C3  <0> d          -0.332  -0.725  -1.158  0.00  0.00    -0.073 A 
ATOM      3  C4  <0> d          -0.068  -2.085  -1.153  0.00  0.00    -0.059 A 
ATOM      4  C5  <0> d           0.282  -2.707   0.037  0.00  0.00     0.031 A 
ATOM      5  N1  <0> d           0.366  -2.024   1.156  0.00  0.00    -0.250 NA
ATOM      6  C6  <0> d           0.128  -0.717   1.195  0.00  0.00     0.108 A 
ATOM      7  H4  <0> d          -0.607  -0.219  -2.071  0.00  0.00     0.084 H 
ATOM      8  H5  <0> d          -0.136  -2.657  -2.067  0.00  0.00     0.086 H 
ENDROOT
BRANCH   6   9
ATOM      9  C7  <0> d           0.242   0.011   2.474  0.00  0.00     0.174 C 
ATOM     10  O1  <0> d           0.135   1.218   2.496  0.00  0.00    -0.291 OA
BRANCH   9  11
ATOM     11  C8  <0> d           0.491  -0.747   3.752  0.00  0.00    -0.015 C 
ATOM     12  H6  <0> d           0.557  -1.813   3.535  0.00  0.00     0.038 H 
ATOM     13  H7  <0> d           1.425  -0.408   4.199  0.00  0.00     0.038 H 
ATOM     14  H8  <0> d          -0.330  -0.568   4.446  0.00  0.00     0.038 H 
ENDBRANCH   9  11
ENDBRANCH   6   9
BRANCH   1  15
ATOM     15  C1  <0> d          -0.511   1.453   0.083  0.00  0.00    -0.049 C 
ATOM     16  H1  <0> d           0.430   2.000   0.018  0.00  0.00     0.033 H 
ATOM     17  H2  <0> d          -1.150   1.729  -0.756  0.00  0.00     0.033 H 
ATOM     18  H3  <0> d          -1.012   1.700   1.019  0.00  0.00     0.033 H 
ENDBRANCH   1  15
BRANCH   4  19
ATOM     19  C9  <0> d           0.569  -4.186   0.046  0.00  0.00    -0.035 C 
ATOM     20  H9  <0> d           1.629  -4.352  -0.144  0.00  0.00     0.035 H 
ATOM     21  H10 <0> d           0.305  -4.602   1.018  0.00  0.00     0.035 H 
ATOM     22  H11 <0> d          -0.020  -4.675  -0.731  0.00  0.00     0.035 H 
ENDBRANCH   4  19
TORSDOF 4
