REMARK  3 active torsions:
REMARK  status: ('A' for Active; 'I' for Inactive)
REMARK    1  A    between atoms: C4_4  and  C7_7 
REMARK    2  A    between atoms: C7_7  and  C8_8 
REMARK    3  A    between atoms: C8_8  and  N2_12 
ROOT
ATOM      1  C8  <0> d          -0.795   1.527  -1.120  0.00  0.00     0.216 C 
ATOM      2  H1  <0> d          -1.794   1.066  -1.090  0.00  0.00     0.112 H 
ATOM      3  C9  <0> d          -0.146   1.150  -2.386  0.00  0.00     0.095 C 
ATOM      4  N1  <0> d           0.356   0.858  -3.362  0.00  0.00    -0.195 NA
ENDROOT
BRANCH   1   5
ATOM      5  C7  <0> d          -0.876   3.052  -1.022  0.00  0.00    -0.000 C 
ATOM      6  H7  <0> d          -1.385   3.450  -1.913  0.00  0.00     0.044 H 
ATOM      7  H8  <0> d           0.140   3.469  -0.964  0.00  0.00     0.044 H 
BRANCH   5   8
ATOM      8  C4  <0> d          -1.649   3.436   0.213  0.00  0.00    -0.055 A 
ATOM      9  C3  <0> d          -0.987   3.626   1.411  0.00  0.00    -0.077 A 
ATOM     10  C2  <0> d          -1.696   3.979   2.544  0.00  0.00    -0.082 A 
ATOM     11  H4  <0> d           0.084   3.498   1.463  0.00  0.00     0.084 H 
ATOM     12  C1  <0> d          -3.067   4.142   2.478  0.00  0.00    -0.083 A 
ATOM     13  H3  <0> d          -1.179   4.127   3.481  0.00  0.00     0.083 H 
ATOM     14  C6  <0> d          -3.729   3.953   1.280  0.00  0.00    -0.082 A 
ATOM     15  H2  <0> d          -3.621   4.419   3.363  0.00  0.00     0.083 H 
ATOM     16  C5  <0> d          -3.019   3.605   0.146  0.00  0.00    -0.077 A 
ATOM     17  H6  <0> d          -4.800   4.081   1.228  0.00  0.00     0.083 H 
ATOM     18  H5  <0> d          -3.536   3.461  -0.792  0.00  0.00     0.084 H 
ENDBRANCH   5   8
ENDBRANCH   1   5
BRANCH   1  19
ATOM     19  N2  <0> d          -0.012   1.005   0.008  0.00  0.00     0.096 N 
ATOM     20  H9  <0> d           0.046  -0.091  -0.062  0.00  0.00     0.314 HD
ATOM     21  H10 <0> d           1.003   1.428  -0.024  0.00  0.00     0.314 HD
ENDBRANCH   1  19
TORSDOF 3
