REMARK  2 active torsions:
REMARK  status: ('A' for Active; 'I' for Inactive)
REMARK    1  A    between atoms: C1_1  and  C2_2 
REMARK       I    between atoms: C2_2  and  N1_4 
REMARK    2  A    between atoms: N1_4  and  C3_5 
ROOT
ATOM      1  C3  <0> d          -1.137  -2.080   0.002  0.00  0.00     0.146 A 
ATOM      2  C4  <0> d          -2.245  -2.921   0.002  0.00  0.00     0.109 A 
ATOM      3  C5  <0> d          -1.757  -4.248  -0.007  0.00  0.00     0.045 A 
ATOM      4  N2  <0> d          -0.454  -4.203  -0.013  0.00  0.00    -0.184 NA
ATOM      5  N3  <0> d          -0.041  -2.866  -0.013  0.00  0.00    -0.262 N 
ATOM      6  H1  <0> d           0.878  -2.557  -0.021  0.00  0.00     0.191 HD
ATOM      7  C6  <0> d          -3.619  -2.519   0.011  0.00  0.00     0.105 C 
ATOM      8  N4  <0> d          -4.709  -2.200   0.017  0.00  0.00    -0.191 NA
ATOM      9  H6  <0> d          -2.360  -5.144  -0.009  0.00  0.00     0.119 H 
ENDROOT
BRANCH   1  10
ATOM     10  N1  <0> d          -1.156  -0.694   0.009  0.00  0.00    -0.311 N 
ATOM     11  C2  <0> d           0.002  -0.004   0.002  0.00  0.00     0.219 C 
ATOM     12  O1  <0> d           1.060  -0.596  -0.011  0.00  0.00    -0.274 OA
ATOM     13  H5  <0> d          -2.002  -0.220   0.020  0.00  0.00     0.170 HD
BRANCH  11  14
ATOM     14  C1  <0> d          -0.018   1.503   0.010  0.00  0.00    -0.002 C 
ATOM     15  H2  <0> d           1.004   1.880   0.003  0.00  0.00     0.040 H 
ATOM     16  H3  <0> d          -0.545   1.864  -0.873  0.00  0.00     0.040 H 
ATOM     17  H4  <0> d          -0.529   1.854   0.907  0.00  0.00     0.040 H 
ENDBRANCH  11  14
ENDBRANCH   1  10
TORSDOF 2
