REMARK  1 active torsions:
REMARK  status: ('A' for Active; 'I' for Inactive)
REMARK    1  A    between atoms: C5_5  and  N1_7 
ROOT
ATOM      1  C1  <0> d          -1.997   2.422  -3.537  0.00  0.00    -0.080 A 
ATOM      2  C2  <0> d          -2.198   3.088  -2.343  0.00  0.00    -0.076 A 
ATOM      3  C3  <0> d          -1.560   2.666  -1.186  0.00  0.00    -0.046 A 
ATOM      4  C4  <0> d          -0.721   1.574  -1.225  0.00  0.00    -0.022 A 
ATOM      5  C5  <0> d          -0.516   0.902  -2.427  0.00  0.00     0.032 A 
ATOM      6  C6  <0> d          -1.156   1.328  -3.582  0.00  0.00    -0.057 A 
ATOM      7  C7  <0> d          -0.013   1.086   0.008  0.00  0.00    -0.023 C 
ATOM      8  C8  <0> d          -0.694   1.559   1.254  0.00  0.00    -0.102 C 
ATOM      9  C9  <0> d          -1.482   2.586   1.291  0.00  0.00    -0.102 C 
ATOM     10  C10 <0> d          -1.806   3.420   0.091  0.00  0.00    -0.025 C 
ATOM     11  H1  <0> d          -2.498   2.757  -4.433  0.00  0.00     0.083 H 
ATOM     12  H2  <0> d          -2.857   3.943  -2.311  0.00  0.00     0.084 H 
ATOM     13  H3  <0> d          -0.997   0.805  -4.514  0.00  0.00     0.086 H 
ATOM     14  H6  <0> d           0.002  -0.004   0.002  0.00  0.00     0.046 H 
ATOM     15  H7  <0> d           1.012   1.456   0.000  0.00  0.00     0.046 H 
ATOM     16  H8  <0> d          -0.518   1.016   2.171  0.00  0.00     0.076 H 
ATOM     17  H9  <0> d          -1.929   2.854   2.237  0.00  0.00     0.076 H 
ATOM     18  H10 <0> d          -1.185   4.316   0.102  0.00  0.00     0.046 H 
ATOM     19  H11 <0> d          -2.855   3.714   0.135  0.00  0.00     0.046 H 
ENDROOT
BRANCH   5  20
ATOM     20  N1  <0> d           0.335  -0.204  -2.470  0.00  0.00    -0.399 N 
ATOM     21  H4  <0> d           0.783  -0.503  -1.664  0.00  0.00     0.156 HD
ATOM     22  H5  <0> d           0.479  -0.674  -3.307  0.00  0.00     0.156 HD
ENDBRANCH   5  20
TORSDOF 1
