REMARK  4 active torsions:
REMARK  status: ('A' for Active; 'I' for Inactive)
REMARK    1  A    between atoms: C3_4  and  C6_12 
REMARK    2  A    between atoms: C4_6  and  O3_11 
REMARK    3  A    between atoms: C5_8  and  O2_10 
REMARK    4  A    between atoms: C6_12  and  O4_13 
ROOT
ATOM      1  C1  <0> d           1.394   1.946  -0.001  0.00  0.00    -0.052 C 
ATOM      2  C2  <0> d           1.764   2.955  -0.744  0.00  0.00     0.012 C 
ATOM      3  O1  <0> d           0.925   3.615  -1.573  0.00  0.00    -0.353 OA
ATOM      4  C3  <0> d          -0.480   3.436  -1.374  0.00  0.00     0.091 C 
ATOM      5  H1  <0> d          -0.792   3.954  -0.467  0.00  0.00     0.091 H 
ATOM      6  C4  <0> d          -0.758   1.933  -1.232  0.00  0.00     0.091 C 
ATOM      7  H2  <0> d          -0.397   1.407  -2.116  0.00  0.00     0.091 H 
ATOM      8  C5  <0> d          -0.017   1.425   0.010  0.00  0.00     0.081 C 
ATOM      9  H3  <0> d          -0.528   1.776   0.906  0.00  0.00     0.093 H 
ATOM     10  H4  <0> d           2.129   1.467   0.629  0.00  0.00     0.083 H 
ATOM     11  H5  <0> d           2.794   3.278  -0.694  0.00  0.00     0.122 H 
ENDROOT
BRANCH   4  12
ATOM     12  C6  <0> d          -1.246   3.991  -2.576  0.00  0.00     0.044 C 
ATOM     13  H8  <0> d          -0.876   3.526  -3.489  0.00  0.00     0.078 H 
ATOM     14  H9  <0> d          -2.308   3.774  -2.462  0.00  0.00     0.078 H 
BRANCH  12  15
ATOM     15  O4  <0> d          -1.055   5.406  -2.650  0.00  0.00    -0.398 OA
ATOM     16  H10 <0> d          -1.513   5.826  -3.390  0.00  0.00     0.209 HD
ENDBRANCH  12  15
ENDBRANCH   4  12
BRANCH   6  17
ATOM     17  O3  <0> d          -2.162   1.714  -1.080  0.00  0.00    -0.390 OA
ATOM     18  H7  <0> d          -2.405   0.785  -0.965  0.00  0.00     0.210 HD
ENDBRANCH   6  17
BRANCH   8  19
ATOM     19  O2  <0> d           0.002  -0.004   0.002  0.00  0.00    -0.389 OA
ATOM     20  H6  <0> d           0.456  -0.395   0.761  0.00  0.00     0.210 HD
ENDBRANCH   8  19
TORSDOF 4
