REMARK  2 active torsions:
REMARK  status: ('A' for Active; 'I' for Inactive)
REMARK    1  A    between atoms: C1_1  and  C2_2 
REMARK    2  A    between atoms: C3_3  and  C4_4 
ROOT
ATOM      1  C4  <0> d           0.038  -2.650  -0.013  0.00  0.00     0.070 C 
ATOM      2  C5  <0> d          -1.343  -3.159  -0.002  0.00  0.00     0.071 C 
ATOM      3  N1  <0> d          -2.409  -3.553   0.006  0.00  0.00    -0.196 NA
ATOM      4  H4  <0> d           0.548  -3.001  -0.909  0.00  0.00     0.074 H 
ATOM      5  H5  <0> d           0.565  -3.011   0.871  0.00  0.00     0.074 H 
ENDROOT
BRANCH   1   6
ATOM      6  C3  <0> d           0.018  -1.178  -0.004  0.00  0.00    -0.093 C 
ATOM      7  C2  <0> d           0.002  -0.004   0.002  0.00  0.00    -0.110 C 
BRANCH   7   8
ATOM      8  C1  <0> d          -0.018   1.468   0.010  0.00  0.00    -0.021 C 
ATOM      9  H1  <0> d           1.005   1.845   0.002  0.00  0.00     0.044 H 
ATOM     10  H2  <0> d          -0.545   1.829  -0.873  0.00  0.00     0.044 H 
ATOM     11  H3  <0> d          -0.528   1.819   0.907  0.00  0.00     0.044 H 
ENDBRANCH   7   8
ENDBRANCH   1   6
TORSDOF 2
