REMARK  3 active torsions:
REMARK  status: ('A' for Active; 'I' for Inactive)
REMARK    1  A    between atoms: C1_1  and  C2_2 
REMARK    2  A    between atoms: C4_5  and  O2_10 
REMARK    3  A    between atoms: O2_10  and  C7_11 
ROOT
ATOM      1  C2  <0> d           0.002  -0.004   0.002  0.00  0.00    -0.035 C 
ATOM      2  H1  <0> d           0.512  -0.356  -0.895  0.00  0.00     0.045 H 
ATOM      3  C3  <0> d          -1.436  -0.535   0.013  0.00  0.00    -0.013 C 
ATOM      4  C4  <0> d          -2.017  -0.311   1.416  0.00  0.00     0.136 C 
ATOM      5  H2  <0> d          -1.966   0.747   1.671  0.00  0.00     0.129 H 
ATOM      6  O1  <0> d          -1.241  -1.070   2.348  0.00  0.00    -0.333 OA
ATOM      7  C5  <0> d           0.104  -0.976   2.267  0.00  0.00     0.012 C 
ATOM      8  C6  <0> d           0.729  -0.503   1.221  0.00  0.00    -0.078 C 
ATOM      9  H6  <0> d          -2.033   0.005  -0.722  0.00  0.00     0.041 H 
ATOM     10  H7  <0> d          -1.437  -1.599  -0.220  0.00  0.00     0.041 H 
ATOM     11  H8  <0> d           0.694  -1.309   3.108  0.00  0.00     0.122 H 
ATOM     12  H9  <0> d           1.809  -0.468   1.232  0.00  0.00     0.080 H 
ENDROOT
BRANCH   4  13
ATOM     13  O2  <0> d          -3.377  -0.750   1.450  0.00  0.00    -0.366 OA
BRANCH  13  14
ATOM     14  C7  <0> d          -4.077  -0.382   2.640  0.00  0.00     0.007 C 
ATOM     15  H10 <0> d          -3.577  -0.817   3.505  0.00  0.00     0.066 H 
ATOM     16  H11 <0> d          -4.087   0.704   2.734  0.00  0.00     0.066 H 
ATOM     17  H12 <0> d          -5.101  -0.752   2.588  0.00  0.00     0.066 H 
ENDBRANCH  13  14
ENDBRANCH   4  13
BRANCH   1  18
ATOM     18  C1  <0> d          -0.019   1.526   0.010  0.00  0.00    -0.069 C 
ATOM     19  H3  <0> d           1.004   1.903   0.003  0.00  0.00     0.028 H 
ATOM     20  H4  <0> d          -0.546   1.887  -0.873  0.00  0.00     0.028 H 
ATOM     21  H5  <0> d          -0.529   1.877   0.907  0.00  0.00     0.028 H 
ENDBRANCH   1  18
TORSDOF 3
