REMARK  2 active torsions:
REMARK  status: ('A' for Active; 'I' for Inactive)
REMARK    1  A    between atoms: C3_5  and  C4_6 
REMARK    2  A    between atoms: C4_6  and  O1_7 
ROOT
ATOM      1  C1  <0> d          -0.016   1.354   0.009  0.00  0.00    -0.049 A 
ATOM      2  C2  <0> d           1.220   1.966   0.001  0.00  0.00     0.011 A 
ATOM      3  N1  <0> d           2.274   1.189  -0.013  0.00  0.00    -0.224 NA
ATOM      4  S1  <0> d           1.642  -0.360  -0.016  0.00  0.00     0.008 SA
ATOM      5  C3  <0> d           0.002  -0.004   0.002  0.00  0.00     0.026 A 
ATOM      6  H1  <0> d          -0.938   1.917   0.026  0.00  0.00     0.087 H 
ATOM      7  H2  <0> d           1.315   3.042   0.005  0.00  0.00     0.115 H 
ENDROOT
BRANCH   5   8
ATOM      8  C4  <0> d          -1.165  -0.958   0.009  0.00  0.00     0.048 C 
ATOM      9  H3  <0> d          -0.877  -1.880   0.514  0.00  0.00     0.082 H 
ATOM     10  H4  <0> d          -2.004  -0.502   0.533  0.00  0.00     0.082 H 
BRANCH   8  11
ATOM     11  O1  <0> d          -1.547  -1.252  -1.337  0.00  0.00    -0.396 OA
ATOM     12  H5  <0> d          -2.294  -1.862  -1.409  0.00  0.00     0.209 HD
ENDBRANCH   8  11
ENDBRANCH   5   8
TORSDOF 2
