REMARK  4 active torsions:
REMARK  status: ('A' for Active; 'I' for Inactive)
REMARK    1  A    between atoms: C1_1  and  C2_2 
REMARK    2  A    between atoms: C2_2  and  C3_3 
REMARK    3  A    between atoms: C2_2  and  C4_4 
REMARK    4  A    between atoms: C2_2  and  C5_5 
ROOT
ATOM      1  C5  <0> d          -0.018   1.468   0.010  0.00  0.00     0.119 C 
ATOM      2  C6  <0> d           0.002  -0.004   0.002  0.00  0.00     0.079 C 
ATOM      3  N1  <0> d           0.018  -1.140  -0.004  0.00  0.00    -0.196 NA
ATOM      4  C7  <0> d           1.363   1.977  -0.000  0.00  0.00     0.079 C 
ATOM      5  N2  <0> d           2.429   2.370  -0.008  0.00  0.00    -0.196 NA
ATOM      6  H10 <0> d          -0.545   1.829  -0.873  0.00  0.00     0.087 H 
ENDROOT
BRANCH   1   7
ATOM      7  C2  <0> d          -0.734   1.961   1.269  0.00  0.00    -0.022 C 
BRANCH   7   8
ATOM      8  C1  <0> d           0.006   1.454   2.508  0.00  0.00    -0.068 C 
ATOM      9  H1  <0> d           1.029   1.832   2.501  0.00  0.00     0.028 H 
ATOM     10  H2  <0> d          -0.504   1.806   3.405  0.00  0.00     0.028 H 
ATOM     11  H3  <0> d           0.021   0.364   2.502  0.00  0.00     0.028 H 
ENDBRANCH   7   8
BRANCH   7  12
ATOM     12  C3  <0> d          -0.755   3.491   1.277  0.00  0.00    -0.068 C 
ATOM     13  H4  <0> d          -1.282   3.852   0.394  0.00  0.00     0.028 H 
ATOM     14  H5  <0> d          -1.265   3.843   2.174  0.00  0.00     0.028 H 
ATOM     15  H6  <0> d           0.268   3.868   1.270  0.00  0.00     0.028 H 
ENDBRANCH   7  12
BRANCH   7  16
ATOM     16  C4  <0> d          -2.169   1.432   1.280  0.00  0.00    -0.068 C 
ATOM     17  H7  <0> d          -2.155   0.342   1.274  0.00  0.00     0.028 H 
ATOM     18  H8  <0> d          -2.680   1.783   2.177  0.00  0.00     0.028 H 
ATOM     19  H9  <0> d          -2.697   1.793   0.397  0.00  0.00     0.028 H 
ENDBRANCH   7  16
ENDBRANCH   1   7
TORSDOF 4
