REMARK  2 active torsions:
REMARK  status: ('A' for Active; 'I' for Inactive)
REMARK    1  A    between atoms: C1_1  and  C2_2 
REMARK    2  A    between atoms: C4_5  and  C5_7 
ROOT
ATOM      1  C5  <0> d          -1.173  -0.901   0.008  0.00  0.00    -0.001 A 
ATOM      2  C6  <0> d          -0.998  -2.286  -0.007  0.00  0.00    -0.070 A 
ATOM      3  C7  <0> d          -2.098  -3.117   0.003  0.00  0.00    -0.082 A 
ATOM      4  C8  <0> d          -3.374  -2.582   0.018  0.00  0.00    -0.083 A 
ATOM      5  C9  <0> d          -3.555  -1.210   0.028  0.00  0.00    -0.082 A 
ATOM      6  C10 <0> d          -2.462  -0.367   0.023  0.00  0.00    -0.070 A 
ATOM      7  H5  <0> d          -0.003  -2.705  -0.024  0.00  0.00     0.084 H 
ATOM      8  H6  <0> d          -1.964  -4.189  -0.005  0.00  0.00     0.083 H 
ATOM      9  H7  <0> d          -4.232  -3.237   0.023  0.00  0.00     0.083 H 
ATOM     10  H8  <0> d          -4.553  -0.798   0.040  0.00  0.00     0.083 H 
ATOM     11  H9  <0> d          -2.605   0.703   0.031  0.00  0.00     0.084 H 
ENDROOT
BRANCH   1  12
ATOM     12  C4  <0> d           0.002  -0.004   0.002  0.00  0.00     0.105 A 
ATOM     13  C3  <0> d           1.307  -0.380  -0.013  0.00  0.00     0.038 A 
ATOM     14  N1  <0> d           2.049   0.738  -0.013  0.00  0.00    -0.238 NA
ATOM     15  H4  <0> d           1.679  -1.393  -0.021  0.00  0.00     0.119 H 
ATOM     16  C2  <0> d           1.254   1.772  -0.000  0.00  0.00     0.141 A 
ATOM     17  O1  <0> d          -0.016   1.347   0.009  0.00  0.00    -0.294 OA
BRANCH  16  18
ATOM     18  C1  <0> d           1.695   3.213   0.003  0.00  0.00    -0.015 C 
ATOM     19  H1  <0> d           1.811   3.555   1.031  0.00  0.00     0.038 H 
ATOM     20  H2  <0> d           2.647   3.303  -0.520  0.00  0.00     0.038 H 
ATOM     21  H3  <0> d           0.945   3.823  -0.501  0.00  0.00     0.038 H 
ENDBRANCH  16  18
ENDBRANCH   1  12
TORSDOF 2
