REMARK  4 active torsions:
REMARK  status: ('A' for Active; 'I' for Inactive)
REMARK    1  A    between atoms: C4_4  and  C8_11 
REMARK    2  A    between atoms: C5_6  and  C7_9 
REMARK    3  A    between atoms: C7_9  and  O1_10 
REMARK    4  A    between atoms: C8_11  and  O2_12 
ROOT
ATOM      1  C1  <0> d           1.446   1.602   2.495  0.00  0.00    -0.065 C 
ATOM      2  C2  <0> d           2.163   1.109   1.237  0.00  0.00    -0.065 C 
ATOM      3  C3  <0> d           1.423   1.615  -0.003  0.00  0.00    -0.059 C 
ATOM      4  C4  <0> d          -0.013   1.086   0.008  0.00  0.00    -0.028 C 
ATOM      5  H1  <0> d           0.002  -0.004   0.002  0.00  0.00     0.043 H 
ATOM      6  C5  <0> d          -0.729   1.579   1.267  0.00  0.00    -0.028 C 
ATOM      7  H2  <0> d          -0.744   2.669   1.273  0.00  0.00     0.043 H 
ATOM      8  C6  <0> d           0.011   1.072   2.506  0.00  0.00    -0.059 C 
ATOM      9  H3  <0> d           1.974   1.241   3.378  0.00  0.00     0.033 H 
ATOM     10  H4  <0> d           1.432   2.692   2.502  0.00  0.00     0.033 H 
ATOM     11  H5  <0> d           2.178   0.019   1.231  0.00  0.00     0.033 H 
ATOM     12  H6  <0> d           3.185   1.486   1.229  0.00  0.00     0.033 H 
ATOM     13  H7  <0> d           1.933   1.264  -0.900  0.00  0.00     0.033 H 
ATOM     14  H8  <0> d           1.408   2.705   0.003  0.00  0.00     0.033 H 
ATOM     15  H9  <0> d           0.026  -0.018   2.500  0.00  0.00     0.033 H 
ATOM     16  H10 <0> d          -0.499   1.424   3.403  0.00  0.00     0.033 H 
ENDROOT
BRANCH   4  17
ATOM     17  C8  <0> d          -0.753   1.593  -1.232  0.00  0.00     0.021 C 
ATOM     18  H14 <0> d          -1.798   1.290  -1.179  0.00  0.00     0.074 H 
ATOM     19  H15 <0> d          -0.691   2.680  -1.272  0.00  0.00     0.074 H 
BRANCH  17  20
ATOM     20  O2  <0> d          -0.154   1.037  -2.404  0.00  0.00    -0.400 OA
ATOM     21  H16 <0> d          -0.573   1.316  -3.230  0.00  0.00     0.209 HD
ENDBRANCH  17  20
ENDBRANCH   4  17
BRANCH   6  22
ATOM     22  C7  <0> d          -2.164   1.050   1.278  0.00  0.00     0.021 C 
ATOM     23  H11 <0> d          -2.664   1.336   0.353  0.00  0.00     0.074 H 
ATOM     24  H12 <0> d          -2.150  -0.037   1.361  0.00  0.00     0.074 H 
BRANCH  22  25
ATOM     25  O1  <0> d          -2.868   1.604   2.391  0.00  0.00    -0.400 OA
ATOM     26  H13 <0> d          -3.787   1.311   2.461  0.00  0.00     0.209 HD
ENDBRANCH  22  25
ENDBRANCH   6  22
TORSDOF 4
