REMARK  3 active torsions:
REMARK  status: ('A' for Active; 'I' for Inactive)
REMARK    1  A    between atoms: C1_1  and  N1_2 
REMARK    2  A    between atoms: N1_2  and  C2_3 
REMARK    3  A    between atoms: N1_2  and  C3_4 
ROOT
ATOM      1  C3  <0> d          -1.187   3.153   0.032  0.00  0.00     0.047 A 
ATOM      2  C4  <0> d          -1.217   1.760   0.033  0.00  0.00    -0.055 A 
ATOM      3  C5  <0> d          -0.013   1.076   0.024  0.00  0.00    -0.064 A 
ATOM      4  C6  <0> d           1.171   1.791   0.003  0.00  0.00     0.002 A 
ATOM      5  N2  <0> d           1.165   3.110  -0.003  0.00  0.00    -0.271 NA
ATOM      6  C7  <0> d           0.042   3.800   0.010  0.00  0.00     0.027 A 
ATOM      7  H7  <0> d          -2.156   1.227   0.044  0.00  0.00     0.087 H 
ATOM      8  H8  <0> d           0.002  -0.004   0.029  0.00  0.00     0.085 H 
ATOM      9  H9  <0> d           2.112   1.262  -0.008  0.00  0.00     0.114 H 
ATOM     10  H10 <0> d           0.078   4.879   0.004  0.00  0.00     0.118 H 
ENDROOT
BRANCH   1  11
ATOM     11  N1  <0> d          -2.375   3.888   0.045  0.00  0.00    -0.388 N 
BRANCH  11  12
ATOM     12  C1  <0> d          -2.332   5.347   0.162  0.00  0.00    -0.019 C 
ATOM     13  H1  <0> d          -1.295   5.683   0.137  0.00  0.00     0.056 H 
ATOM     14  H2  <0> d          -2.879   5.794  -0.667  0.00  0.00     0.056 H 
ATOM     15  H3  <0> d          -2.789   5.650   1.105  0.00  0.00     0.056 H 
ENDBRANCH  11  12
BRANCH  11  16
ATOM     16  C2  <0> d          -3.663   3.198  -0.058  0.00  0.00    -0.019 C 
ATOM     17  H4  <0> d          -4.021   2.946   0.941  0.00  0.00     0.056 H 
ATOM     18  H5  <0> d          -4.386   3.850  -0.549  0.00  0.00     0.056 H 
ATOM     19  H6  <0> d          -3.542   2.286  -0.641  0.00  0.00     0.056 H 
ENDBRANCH  11  16
ENDBRANCH   1  11
TORSDOF 3
