REMARK  2 active torsions:
REMARK  status: ('A' for Active; 'I' for Inactive)
REMARK    1  A    between atoms: C1_1  and  C2_2 
REMARK    2  A    between atoms: C6_6  and  N2_10 
ROOT
ATOM      1  C2  <0> d          -0.017   1.374   0.010  0.00  0.00    -0.039 A 
ATOM      2  C3  <0> d           0.002  -0.004   0.002  0.00  0.00    -0.076 A 
ATOM      3  C4  <0> d           1.207  -0.688  -0.013  0.00  0.00    -0.080 A 
ATOM      4  C5  <0> d           2.402   0.003  -0.021  0.00  0.00    -0.056 A 
ATOM      5  C6  <0> d           2.404   1.391  -0.013  0.00  0.00     0.047 A 
ATOM      6  C7  <0> d           1.185   2.087   0.002  0.00  0.00     0.076 A 
ATOM      7  C8  <0> d           1.172   3.519   0.009  0.00  0.00     0.102 C 
ATOM      8  N1  <0> d           1.163   4.655   0.015  0.00  0.00    -0.191 NA
ATOM      9  H4  <0> d          -0.927  -0.554   0.008  0.00  0.00     0.084 H 
ATOM     10  H5  <0> d           1.211  -1.768  -0.019  0.00  0.00     0.083 H 
ATOM     11  H6  <0> d           3.337  -0.537  -0.032  0.00  0.00     0.086 H 
ENDROOT
BRANCH   1  12
ATOM     12  C1  <0> d          -1.331   2.111   0.020  0.00  0.00    -0.050 C 
ATOM     13  H1  <0> d          -1.643   2.283   1.050  0.00  0.00     0.033 H 
ATOM     14  H2  <0> d          -1.216   3.068  -0.489  0.00  0.00     0.033 H 
ATOM     15  H3  <0> d          -2.086   1.515  -0.494  0.00  0.00     0.033 H 
ENDBRANCH   1  12
BRANCH   5  16
ATOM     16  N2  <0> d           3.607   2.089  -0.021  0.00  0.00    -0.398 N 
ATOM     17  H7  <0> d           4.447   1.606  -0.031  0.00  0.00     0.156 HD
ATOM     18  H8  <0> d           3.605   3.059  -0.015  0.00  0.00     0.156 HD
ENDBRANCH   5  16
TORSDOF 2
