REMARK  2 active torsions:
REMARK  status: ('A' for Active; 'I' for Inactive)
REMARK    1  A    between atoms: C1_1  and  O1_2 
REMARK    2  A    between atoms: O1_2  and  C2_3 
ROOT
ATOM      1  C2  <0> d           0.002  -0.004   0.002  0.00  0.00     0.085 A 
ATOM      2  C3  <0> d          -0.017   1.387   0.010  0.00  0.00    -0.046 A 
ATOM      3  C4  <0> d           1.192   2.062   0.002  0.00  0.00    -0.041 A 
ATOM      4  C5  <0> d           2.371   1.337  -0.013  0.00  0.00     0.125 A 
ATOM      5  N1  <0> d           2.353   0.018  -0.020  0.00  0.00    -0.246 NA
ATOM      6  C6  <0> d           1.223  -0.661  -0.013  0.00  0.00     0.036 A 
ATOM      7 Cl1  <0> d           3.892   2.173  -0.023  0.00  0.00    -0.062 Cl
ATOM      8  H4  <0> d          -0.952   1.928   0.017  0.00  0.00     0.087 H 
ATOM      9  H5  <0> d           1.216   3.142   0.007  0.00  0.00     0.088 H 
ATOM     10  H6  <0> d           1.248  -1.741  -0.019  0.00  0.00     0.119 H 
ENDROOT
BRANCH   1  11
ATOM     11  O1  <0> d          -1.160  -0.709   0.009  0.00  0.00    -0.355 OA
BRANCH  11  12
ATOM     12  C1  <0> d          -1.055  -2.134   0.000  0.00  0.00     0.010 C 
ATOM     13  H1  <0> d          -0.507  -2.463   0.883  0.00  0.00     0.066 H 
ATOM     14  H2  <0> d          -2.053  -2.572   0.007  0.00  0.00     0.066 H 
ATOM     15  H3  <0> d          -0.524  -2.454  -0.896  0.00  0.00     0.066 H 
ENDBRANCH  11  12
ENDBRANCH   1  11
TORSDOF 2
