REMARK  2 active torsions:
REMARK  status: ('A' for Active; 'I' for Inactive)
REMARK    1  A    between atoms: C1_1  and  C2_2 
REMARK    2  A    between atoms: C2_2  and  C3_4 
ROOT
ATOM      1  C3  <0> d          -0.218   1.230   2.526  0.00  0.00     0.069 A 
ATOM      2  C4  <0> d          -0.700   1.562   3.789  0.00  0.00     0.022 A 
ATOM      3  N1  <0> d          -0.043   1.113   4.825  0.00  0.00    -0.265 NA
ATOM      4  C5  <0> d           1.037   0.370   4.694  0.00  0.00     0.040 A 
ATOM      5  S1  <0> d           1.204   0.244   2.970  0.00  0.00    -0.078 SA
ATOM      6  H4  <0> d          -1.585   2.171   3.908  0.00  0.00     0.117 H 
ATOM      7  H5  <0> d           1.660  -0.057   5.466  0.00  0.00     0.126 H 
ENDROOT
BRANCH   1   8
ATOM      8  C2  <0> d          -0.718   1.572   1.248  0.00  0.00     0.164 C 
ATOM      9  O1  <0> d          -1.716   2.257   1.150  0.00  0.00    -0.292 OA
BRANCH   8  10
ATOM     10  C1  <0> d          -0.013   1.086   0.008  0.00  0.00    -0.016 C 
ATOM     11  H1  <0> d           0.001   0.086   0.003  0.00  0.00     0.038 H 
ATOM     12  H2  <0> d           1.010   1.463   0.000  0.00  0.00     0.038 H 
ATOM     13  H3  <0> d          -0.540   1.447  -0.875  0.00  0.00     0.038 H 
ENDBRANCH   8  10
ENDBRANCH   1   8
TORSDOF 2
