REMARK  3 active torsions:
REMARK  status: ('A' for Active; 'I' for Inactive)
REMARK    1  A    between atoms: C2_2  and  C3_3 
REMARK    2  A    between atoms: C3_3  and  C4_4 
REMARK    3  A    between atoms: C9_9  and  O1_10 
ROOT
ATOM      1  C4  <0> d           1.159   3.173   0.008  0.00  0.00    -0.019 A 
ATOM      2  C5  <0> d          -0.049   3.845   0.022  0.00  0.00    -0.037 A 
ATOM      3  C6  <0> d          -1.237   3.135   0.029  0.00  0.00     0.117 A 
ATOM      4  C7  <0> d          -1.218   1.750   0.017  0.00  0.00    -0.043 A 
ATOM      5  C8  <0> d          -0.013   1.076   0.008  0.00  0.00    -0.048 A 
ATOM      6  C9  <0> d           1.179   1.786   0.000  0.00  0.00     0.072 A 
ATOM      7  F1  <0> d          -2.417   3.794   0.043  0.00  0.00    -0.206 F 
ATOM      8  H6  <0> d          -0.065   4.925   0.028  0.00  0.00     0.089 H 
ATOM      9  H7  <0> d          -2.146   1.198   0.019  0.00  0.00     0.088 H 
ATOM     10  H8  <0> d           0.002  -0.004   0.002  0.00  0.00     0.087 H 
ENDROOT
BRANCH   1  11
ATOM     11  C3  <0> d           2.452   3.946  -0.000  0.00  0.00    -0.024 C 
ATOM     12  H4  <0> d           3.208   3.402   0.585  0.00  0.00     0.046 H 
ATOM     13  H5  <0> d           2.288   4.939   0.445  0.00  0.00     0.046 H 
BRANCH  11  14
ATOM     14  C2  <0> d           2.934   4.104  -1.419  0.00  0.00    -0.108 C 
ATOM     15  C1  <0> d           3.187   5.298  -1.895  0.00  0.00    -0.124 C 
ATOM     16  H1  <0> d           3.538   5.414  -2.931  0.00  0.00     0.066 H 
ATOM     17  H2  <0> d           3.047   6.185  -1.260  0.00  0.00     0.066 H 
ATOM     18  H3  <0> d           3.074   3.218  -2.055  0.00  0.00     0.076 H 
ENDBRANCH  11  14
ENDBRANCH   1  11
BRANCH   6  19
ATOM     19  O1  <0> d           2.366   1.123  -0.015  0.00  0.00    -0.360 OA
ATOM     20  H9  <0> d           2.382   0.024  -0.020  0.00  0.00     0.217 HD
ENDBRANCH   6  19
TORSDOF 3
