REMARK  5 active torsions:
REMARK  status: ('A' for Active; 'I' for Inactive)
REMARK    1  A    between atoms: C1_1  and  C2_2 
REMARK    2  A    between atoms: C2_2  and  C3_3 
REMARK    3  A    between atoms: C2_2  and  C4_4 
REMARK    4  A    between atoms: C4_4  and  O1_5 
REMARK    5  A    between atoms: O1_5  and  C5_6 
ROOT
ATOM      1  O1  <0> d           3.474  -0.887  -0.037  0.00  0.00    -0.361 OA
ENDROOT
BRANCH   1   2
ATOM      2  C4  <0> d           3.603  -2.048  -0.860  0.00  0.00     0.025 C 
ATOM      3  H9  <0> d           2.710  -2.665  -0.760  0.00  0.00     0.075 H 
ATOM      4  H10 <0> d           3.721  -1.745  -1.900  0.00  0.00     0.075 H 
BRANCH   2   5
ATOM      5  C2  <0> d           4.830  -2.850  -0.420  0.00  0.00    -0.040 C 
ATOM      6  H5  <0> d           4.753  -3.078   0.643  0.00  0.00     0.042 H 
BRANCH   5   7
ATOM      7  C1  <0> d           4.898  -4.155  -1.217  0.00  0.00    -0.071 C 
ATOM      8  H2  <0> d           4.974  -3.928  -2.280  0.00  0.00     0.028 H 
ATOM      9  H3  <0> d           5.771  -4.726  -0.904  0.00  0.00     0.028 H 
ATOM     10  H4  <0> d           3.996  -4.740  -1.034  0.00  0.00     0.028 H 
ENDBRANCH   5   7
BRANCH   5  11
ATOM     11  C3  <0> d           6.095  -2.029  -0.676  0.00  0.00    -0.071 C 
ATOM     12  H6  <0> d           6.046  -1.100  -0.109  0.00  0.00     0.028 H 
ATOM     13  H7  <0> d           6.968  -2.601  -0.363  0.00  0.00     0.028 H 
ATOM     14  H8  <0> d           6.171  -1.802  -1.740  0.00  0.00     0.028 H 
ENDBRANCH   5  11
ENDBRANCH   2   5
ENDBRANCH   1   2
BRANCH   1  15
ATOM     15  C5  <0> d           2.353  -0.064  -0.365  0.00  0.00     0.136 C 
ATOM     16  H1  <0> d           2.352   0.146  -1.435  0.00  0.00     0.129 H 
ATOM     17  O2  <0> d           1.141  -0.732  -0.004  0.00  0.00    -0.333 OA
ATOM     18  C9  <0> d           0.002  -0.004   0.002  0.00  0.00     0.012 C 
ATOM     19  C8  <0> d          -0.016   1.303   0.009  0.00  0.00    -0.082 C 
ATOM     20  H16 <0> d          -0.942  -0.529   0.001  0.00  0.00     0.122 H 
ATOM     21  C7  <0> d           1.242   2.128   0.002  0.00  0.00    -0.044 C 
ATOM     22  H15 <0> d          -0.969   1.809   0.016  0.00  0.00     0.079 H 
ATOM     23  C6  <0> d           2.429   1.253   0.420  0.00  0.00    -0.016 C 
ATOM     24  H13 <0> d           1.414   2.519  -1.001  0.00  0.00     0.039 H 
ATOM     25  H14 <0> d           1.137   2.957   0.702  0.00  0.00     0.039 H 
ATOM     26  H11 <0> d           2.375   1.048   1.489  0.00  0.00     0.040 H 
ATOM     27  H12 <0> d           3.363   1.765   0.190  0.00  0.00     0.040 H 
ENDBRANCH   1  15
TORSDOF 5
