REMARK  5 active torsions:
REMARK  status: ('A' for Active; 'I' for Inactive)
REMARK    1  A    between atoms: C1_1  and  C2_2 
REMARK    2  A    between atoms: C2_2  and  C3_3 
REMARK    3  A    between atoms: C2_2  and  C4_4 
REMARK    4  A    between atoms: C4_4  and  C5_6 
REMARK    5  A    between atoms: C4_4  and  O1_8 
ROOT
ATOM      1  C2  <0> d          -0.013   1.086   0.008  0.00  0.00    -0.033 C 
ATOM      2  H5  <0> d           0.002  -0.004   0.002  0.00  0.00     0.043 H 
ENDROOT
BRANCH   1   3
ATOM      3  C1  <0> d           1.423   1.615  -0.003  0.00  0.00    -0.071 C 
ATOM      4  H2  <0> d           1.933   1.264  -0.900  0.00  0.00     0.028 H 
ATOM      5  H3  <0> d           1.408   2.705   0.003  0.00  0.00     0.028 H 
ATOM      6  H4  <0> d           1.950   1.254   0.880  0.00  0.00     0.028 H 
ENDBRANCH   1   3
BRANCH   1   7
ATOM      7  C3  <0> d          -0.753   1.593  -1.232  0.00  0.00    -0.071 C 
ATOM      8  H6  <0> d          -0.242   1.241  -2.128  0.00  0.00     0.028 H 
ATOM      9  H7  <0> d          -1.775   1.215  -1.224  0.00  0.00     0.028 H 
ATOM     10  H8  <0> d          -0.767   2.683  -1.226  0.00  0.00     0.028 H 
ENDBRANCH   1   7
BRANCH   1  11
ATOM     11  C4  <0> d          -0.729   1.579   1.267  0.00  0.00     0.054 C 
ATOM     12  H1  <0> d          -1.751   1.202   1.275  0.00  0.00     0.089 H 
BRANCH  11  13
ATOM     13  C5  <0> d           0.000   1.080   2.488  0.00  0.00    -0.085 C 
ATOM     14  C6  <0> d           0.409   1.928   3.399  0.00  0.00    -0.122 C 
ATOM     15  H10 <0> d           0.223   2.985   3.275  0.00  0.00     0.066 H 
ATOM     16  H11 <0> d           0.931   1.570   4.274  0.00  0.00     0.066 H 
ATOM     17  H9  <0> d           0.185   0.023   2.611  0.00  0.00     0.079 H 
ENDBRANCH  11  13
BRANCH  11  18
ATOM     18  O1  <0> d          -0.748   3.008   1.275  0.00  0.00    -0.391 OA
ATOM     19  H12 <0> d           0.130   3.413   1.268  0.00  0.00     0.210 HD
ENDBRANCH  11  18
ENDBRANCH   1  11
TORSDOF 5
