REMARK  2 active torsions:
REMARK  status: ('A' for Active; 'I' for Inactive)
REMARK    1  A    between atoms: C1_1  and  O1_2 
REMARK    2  A    between atoms: O1_2  and  C2_3 
ROOT
ATOM      1  C2  <0> d          -1.974   1.163   1.348  0.00  0.00     0.069 A 
ATOM      2  C3  <0> d          -2.583   0.358   0.380  0.00  0.00    -0.050 A 
ATOM      3  C4  <0> d          -3.874  -0.048   0.517  0.00  0.00    -0.068 A 
ATOM      4  C5  <0> d          -4.613   0.355   1.642  0.00  0.00    -0.008 A 
ATOM      5  C6  <0> d          -5.949  -0.029   1.832  0.00  0.00     0.013 A 
ATOM      6  N1  <0> d          -6.601   0.373   2.898  0.00  0.00    -0.272 NA
ATOM      7  C7  <0> d          -6.050   1.141   3.829  0.00  0.00     0.003 A 
ATOM      8  C8  <0> d          -4.761   1.568   3.739  0.00  0.00    -0.055 A 
ATOM      9  C9  <0> d          -3.997   1.178   2.622  0.00  0.00    -0.021 A 
ATOM     10  C10 <0> d          -2.664   1.574   2.455  0.00  0.00    -0.040 A 
ATOM     11  H4  <0> d          -2.019   0.050  -0.487  0.00  0.00     0.087 H 
ATOM     12  H5  <0> d          -4.330  -0.674  -0.236  0.00  0.00     0.085 H 
ATOM     13  H6  <0> d          -6.441  -0.654   1.102  0.00  0.00     0.116 H 
ATOM     14  H7  <0> d          -6.642   1.437   4.683  0.00  0.00     0.114 H 
ATOM     15  H8  <0> d          -4.332   2.193   4.508  0.00  0.00     0.087 H 
ATOM     16  H9  <0> d          -2.185   2.200   3.193  0.00  0.00     0.089 H 
ENDROOT
BRANCH   1  17
ATOM     17  O1  <0> d          -0.682   1.547   1.184  0.00  0.00    -0.356 OA
BRANCH  17  18
ATOM     18  C1  <0> d          -0.013   1.086   0.008  0.00  0.00     0.010 C 
ATOM     19  H1  <0> d           0.002  -0.004   0.002  0.00  0.00     0.066 H 
ATOM     20  H2  <0> d           1.010   1.463   0.000  0.00  0.00     0.066 H 
ATOM     21  H3  <0> d          -0.540   1.447  -0.875  0.00  0.00     0.066 H 
ENDBRANCH  17  18
ENDBRANCH   1  17
TORSDOF 2
