REMARK  3 active torsions:
REMARK  status: ('A' for Active; 'I' for Inactive)
REMARK    1  A    between atoms: C1_1  and  O1_2 
REMARK    2  A    between atoms: O1_2  and  C2_3 
REMARK    3  A    between atoms: C5_6  and  C8_10 
ROOT
ATOM      1  C8  <0> d          -4.921  -2.595   0.035  0.00  0.00    -0.078 C 
ATOM      2  C9  <0> d          -5.960  -3.141   0.043  0.00  0.00    -0.149 C 
ATOM      3  H7  <0> d          -6.890  -3.629   0.049  0.00  0.00     0.166 H 
ENDROOT
BRANCH   1   4
ATOM      4  C5  <0> d          -3.653  -1.929   0.026  0.00  0.00     0.019 A 
ATOM      5  C4  <0> d          -3.596  -0.534   0.028  0.00  0.00    -0.062 A 
ATOM      6  C3  <0> d          -2.373   0.104   0.019  0.00  0.00    -0.046 A 
ATOM      7  H5  <0> d          -4.508   0.044   0.036  0.00  0.00     0.085 H 
ATOM      8  C2  <0> d          -1.200  -0.637   0.010  0.00  0.00     0.106 A 
ATOM      9  H4  <0> d          -2.329   1.183   0.021  0.00  0.00     0.087 H 
ATOM     10  C7  <0> d          -1.252  -2.027   0.003  0.00  0.00     0.150 A 
ATOM     11  C6  <0> d          -2.472  -2.673   0.016  0.00  0.00    -0.025 A 
ATOM     12  F1  <0> d          -0.108  -2.745  -0.011  0.00  0.00    -0.203 F 
ATOM     13  H6  <0> d          -2.513  -3.752   0.015  0.00  0.00     0.090 H 
BRANCH   8  14
ATOM     14  O1  <0> d           0.002  -0.004   0.002  0.00  0.00    -0.353 OA
BRANCH  14  15
ATOM     15  C1  <0> d          -0.017   1.425   0.010  0.00  0.00     0.011 C 
ATOM     16  H1  <0> d           1.005   1.802   0.002  0.00  0.00     0.066 H 
ATOM     17  H2  <0> d          -0.544   1.786  -0.873  0.00  0.00     0.066 H 
ATOM     18  H3  <0> d          -0.527   1.776   0.907  0.00  0.00     0.066 H 
ENDBRANCH  14  15
ENDBRANCH   8  14
ENDBRANCH   1   4
TORSDOF 3
