REMARK  2 active torsions:
REMARK  status: ('A' for Active; 'I' for Inactive)
REMARK    1  A    between atoms: C3_3  and  N1_9 
REMARK    2  A    between atoms: C5_5  and  O1_7 
ROOT
ATOM      1  C1  <0> d           1.169   2.093   0.002  0.00  0.00    -0.078 A 
ATOM      2  C2  <0> d           2.378   1.423  -0.013  0.00  0.00    -0.056 A 
ATOM      3  C3  <0> d           2.404   0.035  -0.021  0.00  0.00     0.050 A 
ATOM      4  C4  <0> d           1.212  -0.680  -0.013  0.00  0.00     0.093 A 
ATOM      5  C5  <0> d           0.002  -0.004   0.002  0.00  0.00     0.089 A 
ATOM      6  C6  <0> d          -0.017   1.384   0.010  0.00  0.00    -0.049 A 
ATOM      7 Cl1  <0> d           1.240  -2.416  -0.022  0.00  0.00    -0.079 Cl
ATOM      8  H1  <0> d           1.151   3.173   0.008  0.00  0.00     0.083 H 
ATOM      9  H2  <0> d           3.303   1.980  -0.019  0.00  0.00     0.087 H 
ATOM     10  H3  <0> d          -0.960   1.910   0.017  0.00  0.00     0.087 H 
ENDROOT
BRANCH   3  11
ATOM     11  N1  <0> d           3.626  -0.642  -0.035  0.00  0.00    -0.398 N 
ATOM     12  H5  <0> d           3.645  -1.742  -0.042  0.00  0.00     0.156 HD
ATOM     13  H6  <0> d           4.569  -0.076  -0.041  0.00  0.00     0.156 HD
ENDBRANCH   3  11
BRANCH   5  14
ATOM     14  O1  <0> d          -1.165  -0.700   0.010  0.00  0.00    -0.359 OA
ATOM     15  H4  <0> d          -2.126  -0.164   0.022  0.00  0.00     0.217 HD
ENDBRANCH   5  14
TORSDOF 2
