REMARK  1 active torsions:
REMARK  status: ('A' for Active; 'I' for Inactive)
REMARK    1  A    between atoms: C4_5  and  C6_7 
ROOT
ATOM      1  C1  <0> d           1.220  -0.669  -0.013  0.00  0.00    -0.079 A 
ATOM      2  C2  <0> d           0.002  -0.004   0.002  0.00  0.00    -0.066 A 
ATOM      3  C3  <0> d          -0.017   1.379   0.010  0.00  0.00     0.003 A 
ATOM      4  N1  <0> d           1.104   2.071   0.003  0.00  0.00    -0.257 NA
ATOM      5  C4  <0> d           2.290   1.474  -0.012  0.00  0.00     0.102 A 
ATOM      6  C5  <0> d           2.383   0.082  -0.020  0.00  0.00    -0.051 A 
ATOM      7  H2  <0> d           1.260  -1.748  -0.020  0.00  0.00     0.083 H 
ATOM      8  H3  <0> d          -0.923  -0.562   0.008  0.00  0.00     0.085 H 
ATOM      9  H4  <0> d          -0.963   1.899   0.017  0.00  0.00     0.114 H 
ATOM     10  H5  <0> d           3.348  -0.403  -0.033  0.00  0.00     0.087 H 
ENDROOT
BRANCH   5  11
ATOM     11  C6  <0> d           3.523   2.291  -0.019  0.00  0.00     0.156 A 
ATOM     12  N3  <0> d           4.753   1.829  -0.033  0.00  0.00    -0.240 NA
ATOM     13  C8  <0> d           5.610   2.854  -0.036  0.00  0.00     0.019 A 
ATOM     14  C7  <0> d           4.899   4.002  -0.023  0.00  0.00    -0.004 A 
ATOM     15  H7  <0> d           6.687   2.778  -0.047  0.00  0.00     0.117 H 
ATOM     16  N2  <0> d           3.577   3.655  -0.018  0.00  0.00    -0.348 N 
ATOM     17  H6  <0> d           5.300   5.005  -0.021  0.00  0.00     0.113 H 
ATOM     18  H1  <0> d           2.798   4.281  -0.013  0.00  0.00     0.167 HD
ENDBRANCH   5  11
TORSDOF 1
