REMARK  0 active torsions:
REMARK  status: ('A' for Active; 'I' for Inactive)
ROOT
ATOM      1  C1  <0> d           1.205  -0.686  -0.012  0.00  0.00    -0.082 A 
ATOM      2  C2  <0> d           0.002  -0.004   0.002  0.00  0.00    -0.080 A 
ATOM      3  C3  <0> d          -0.017   1.375   0.010  0.00  0.00    -0.050 A 
ATOM      4  C4  <0> d           1.177   2.093   0.002  0.00  0.00     0.075 A 
ATOM      5  C5  <0> d           2.378   1.396  -0.005  0.00  0.00    -0.023 A 
ATOM      6  C6  <0> d           2.395   0.019  -0.015  0.00  0.00    -0.074 A 
ATOM      7  C7  <0> d           3.490   2.428   0.007  0.00  0.00    -0.018 C 
ATOM      8  C8  <0> d           2.731   3.712   0.418  0.00  0.00     0.030 C 
ATOM      9  O1  <0> d           1.387   3.438  -0.012  0.00  0.00    -0.350 OA
ATOM     10  H1  <0> d           1.215  -1.766  -0.022  0.00  0.00     0.083 H 
ATOM     11  H2  <0> d          -0.927  -0.554   0.007  0.00  0.00     0.083 H 
ATOM     12  H3  <0> d          -0.960   1.900   0.017  0.00  0.00     0.087 H 
ATOM     13  H4  <0> d           3.336  -0.510  -0.025  0.00  0.00     0.084 H 
ATOM     14  H5  <0> d           4.260   2.129   0.734  0.00  0.00     0.043 H 
ATOM     15  H6  <0> d           3.939   2.494  -0.995  0.00  0.00     0.043 H 
ATOM     16  H7  <0> d           2.809   3.851   1.506  0.00  0.00     0.075 H 
ATOM     17  H8  <0> d           3.173   4.579  -0.095  0.00  0.00     0.075 H 
ENDROOT
TORSDOF 0
