REMARK  2 active torsions:
REMARK  status: ('A' for Active; 'I' for Inactive)
REMARK    1  A    between atoms: C1_1  and  N1_2 
REMARK    2  A    between atoms: C4_5  and  C7_9 
REMARK       I    between atoms: C7_9  and  N2_11 
ROOT
ATOM      1  N1  <0> d           0.002  -0.004   0.002  0.00  0.00    -0.329 N 
ATOM      2  C2  <0> d           0.022  -0.677   1.180  0.00  0.00    -0.017 A 
ATOM      3  C3  <0> d           0.040  -2.030   1.209  0.00  0.00    -0.052 A 
ATOM      4  C4  <0> d           0.038  -2.759   0.001  0.00  0.00     0.038 A 
ATOM      5  C5  <0> d           0.018  -2.069  -1.197  0.00  0.00    -0.002 A 
ATOM      6  C6  <0> d          -0.006  -0.659  -1.174  0.00  0.00     0.247 A 
ATOM      7  O1  <0> d          -0.029  -0.033  -2.220  0.00  0.00    -0.268 OA
ATOM      8  H4  <0> d           0.024  -0.125   2.108  0.00  0.00     0.111 H 
ATOM      9  H5  <0> d           0.056  -2.550   2.156  0.00  0.00     0.087 H 
ATOM     10  H6  <0> d           0.016  -2.601  -2.136  0.00  0.00     0.093 H 
ENDROOT
BRANCH   4  11
ATOM     11  C7  <0> d           0.058  -4.243   0.016  0.00  0.00     0.249 C 
ATOM     12  O2  <0> d           0.056  -4.861  -1.030  0.00  0.00    -0.268 OA
ATOM     13  N2  <0> d           0.078  -4.905   1.190  0.00  0.00    -0.366 N 
ATOM     14  H7  <0> d           0.080  -4.412   2.025  0.00  0.00     0.159 HD
ATOM     15  H8  <0> d           0.091  -5.875   1.200  0.00  0.00     0.159 HD
ENDBRANCH   4  11
BRANCH   1  16
ATOM     16  C1  <0> d          -0.018   1.461   0.010  0.00  0.00    -0.012 C 
ATOM     17  H1  <0> d           1.005   1.838   0.002  0.00  0.00     0.057 H 
ATOM     18  H2  <0> d          -0.545   1.822  -0.873  0.00  0.00     0.057 H 
ATOM     19  H3  <0> d          -0.528   1.812   0.907  0.00  0.00     0.057 H 
ENDBRANCH   1  16
TORSDOF 2
