REMARK  6 active torsions:
REMARK  status: ('A' for Active; 'I' for Inactive)
REMARK    1  A    between atoms: C1_1  and  C2_2 
REMARK    2  A    between atoms: C2_2  and  C3_3 
REMARK       I    between atoms: C3_3  and  N1_5 
REMARK    3  A    between atoms: N1_5  and  C4_6 
REMARK    4  A    between atoms: C4_6  and  C5_7 
REMARK    5  A    between atoms: C5_7  and  C8_10 
REMARK    6  A    between atoms: C8_10  and  O2_11 
ROOT
ATOM      1  C4  <0> d          -2.416  -2.470  -0.067  0.00  0.00     0.004 C 
ATOM      2  H7  <0> d          -2.697  -1.994   0.872  0.00  0.00     0.065 H 
ATOM      3  H8  <0> d          -2.807  -1.888  -0.902  0.00  0.00     0.065 H 
ENDROOT
BRANCH   1   4
ATOM      4  N1  <0> d          -0.956  -2.538  -0.162  0.00  0.00    -0.360 N 
ATOM      5  C3  <0> d          -0.233  -1.405  -0.251  0.00  0.00     0.217 C 
ATOM      6  O1  <0> d          -0.791  -0.328  -0.253  0.00  0.00    -0.274 OA
ATOM      7  H6  <0> d          -0.509  -3.400  -0.160  0.00  0.00     0.162 HD
BRANCH   5   8
ATOM      8  C2  <0> d           1.270  -1.475  -0.348  0.00  0.00     0.006 C 
ATOM      9  H4  <0> d           1.550  -2.037  -1.239  0.00  0.00     0.046 H 
ATOM     10  H5  <0> d           1.668  -1.973   0.536  0.00  0.00     0.046 H 
BRANCH   8  11
ATOM     11  C1  <0> d           1.842  -0.059  -0.437  0.00  0.00    -0.068 C 
ATOM     12  H1  <0> d           2.928  -0.109  -0.507  0.00  0.00     0.028 H 
ATOM     13  H2  <0> d           1.443   0.439  -1.321  0.00  0.00     0.028 H 
ATOM     14  H3  <0> d           1.561   0.503   0.454  0.00  0.00     0.028 H 
ENDBRANCH   8  11
ENDBRANCH   5   8
ENDBRANCH   1   4
BRANCH   1  15
ATOM     15  C5  <0> d          -2.997  -3.885  -0.116  0.00  0.00    -0.003 A 
ATOM     16  C7  <0> d          -2.817  -4.678  -1.412  0.00  0.00    -0.054 A 
ATOM     17  C6  <0> d          -4.194  -4.126  -1.038  0.00  0.00    -0.054 A 
ATOM     18  H11 <0> d          -2.285  -4.193  -2.230  0.00  0.00     0.034 H 
ATOM     19  H12 <0> d          -2.666  -5.755  -1.326  0.00  0.00     0.034 H 
ATOM     20  H9  <0> d          -4.949  -4.839  -0.706  0.00  0.00     0.034 H 
ATOM     21  H10 <0> d          -4.568  -3.277  -1.609  0.00  0.00     0.034 H 
BRANCH  15  22
ATOM     22  C8  <0> d          -2.950  -4.663   1.201  0.00  0.00     0.025 C 
ATOM     23  H13 <0> d          -3.302  -5.681   1.034  0.00  0.00     0.075 H 
ATOM     24  H14 <0> d          -1.926  -4.689   1.572  0.00  0.00     0.075 H 
BRANCH  22  25
ATOM     25  O2  <0> d          -3.789  -4.021   2.163  0.00  0.00    -0.400 OA
ATOM     26  H15 <0> d          -3.809  -4.461   3.024  0.00  0.00     0.209 HD
ENDBRANCH  22  25
ENDBRANCH  15  22
ENDBRANCH   1  15
TORSDOF 6
