REMARK  1 active torsions:
REMARK  status: ('A' for Active; 'I' for Inactive)
REMARK    1  A    between atoms: C1_1  and  C2_2 
ROOT
ATOM      1  C2  <0> d           1.855   1.818   1.201  0.00  0.00    -0.006 A 
ATOM      2  C3  <0> d           3.113   2.394   1.179  0.00  0.00    -0.051 A 
ATOM      3  C4  <0> d           3.692   2.674  -0.052  0.00  0.00     0.050 A 
ATOM      4  C5  <0> d           3.001   2.365  -1.209  0.00  0.00     0.000 A 
ATOM      5  N1  <0> d           1.804   1.812  -1.155  0.00  0.00    -0.343 N 
ATOM      6  C6  <0> d           1.221   1.531  -0.001  0.00  0.00     0.184 A 
ATOM      7  O1  <0> d          -0.011   0.962   0.007  0.00  0.00    -0.172 OA
ATOM      8 Cl1  <0> d           5.265   3.402  -0.137  0.00  0.00    -0.083 Cl
ATOM      9  H4  <0> d           3.584   2.599   2.037  0.00  0.00     0.087 H 
ATOM     10  H5  <0> d           3.408   2.562  -2.101  0.00  0.00     0.114 H 
ATOM     11  H6  <0> d           1.291   1.585  -2.100  0.00  0.00     0.167 HD
ENDROOT
BRANCH   1  12
ATOM     12  C1  <0> d           1.180   1.506   2.512  0.00  0.00    -0.047 C 
ATOM     13  H1  <0> d           0.195   1.056   2.320  0.00  0.00     0.033 H 
ATOM     14  H2  <0> d           1.053   2.434   3.089  0.00  0.00     0.033 H 
ATOM     15  H3  <0> d           1.801   0.801   3.085  0.00  0.00     0.033 H 
ENDBRANCH   1  12
TORSDOF 1
