REMARK  1 active torsions:
REMARK  status: ('A' for Active; 'I' for Inactive)
REMARK    1  A    between atoms: C9_9  and  N2_11 
ROOT
ATOM      1  C1  <0> d          -0.013   1.076   0.008  0.00  0.00    -0.082 A 
ATOM      2  C2  <0> d          -1.233   1.747   0.017  0.00  0.00    -0.081 A 
ATOM      3  C3  <0> d          -1.286   3.107   0.030  0.00  0.00    -0.054 A 
ATOM      4  C4  <0> d          -0.094   3.852   0.023  0.00  0.00     0.069 A 
ATOM      5  C5  <0> d           1.145   3.167   0.008  0.00  0.00    -0.007 A 
ATOM      6  C6  <0> d           1.163   1.764   0.000  0.00  0.00    -0.071 A 
ATOM      7  C7  <0> d           2.341   3.914   0.001  0.00  0.00    -0.067 A 
ATOM      8  C8  <0> d           2.254   5.274   0.010  0.00  0.00    -0.038 A 
ATOM      9  C9  <0> d           0.996   5.893   0.025  0.00  0.00     0.121 A 
ATOM     10  N1  <0> d          -0.118   5.189   0.031  0.00  0.00    -0.231 NA
ATOM     11  H1  <0> d           0.002  -0.004   0.002  0.00  0.00     0.083 H 
ATOM     12  H2  <0> d          -2.152   1.179   0.019  0.00  0.00     0.083 H 
ATOM     13  H3  <0> d          -2.241   3.612   0.041  0.00  0.00     0.087 H 
ATOM     14  H4  <0> d           2.103   1.233  -0.011  0.00  0.00     0.084 H 
ATOM     15  H5  <0> d           3.302   3.421  -0.010  0.00  0.00     0.085 H 
ATOM     16  H6  <0> d           3.152   5.874   0.005  0.00  0.00     0.089 H 
ENDROOT
BRANCH   9  17
ATOM     17  N2  <0> d           0.922   7.277   0.034  0.00  0.00    -0.384 N 
ATOM     18  H7  <0> d           0.058   7.717   0.044  0.00  0.00     0.157 HD
ATOM     19  H8  <0> d           1.735   7.806   0.029  0.00  0.00     0.157 HD
ENDBRANCH   9  17
TORSDOF 1
