REMARK  2 active torsions:
REMARK  status: ('A' for Active; 'I' for Inactive)
REMARK    1  A    between atoms: C1_1  and  O1_2 
REMARK    2  A    between atoms: O1_2  and  C2_3 
ROOT
ATOM      1  C2  <0> d          -0.148   1.182   2.381  0.00  0.00     0.086 A 
ATOM      2  C3  <0> d          -0.738   1.595   3.565  0.00  0.00    -0.036 A 
ATOM      3  C4  <0> d          -0.153   1.188   4.766  0.00  0.00     0.014 A 
ATOM      4  C5  <0> d          -0.464   1.404   6.180  0.00  0.00    -0.054 A 
ATOM      5  C6  <0> d           0.475   0.760   6.890  0.00  0.00    -0.020 A 
ATOM      6  N1  <0> d           1.362   0.149   6.044  0.00  0.00    -0.350 N 
ATOM      7  H1  <0> d           2.127  -0.376   6.326  0.00  0.00     0.166 HD
ATOM      8  C7  <0> d           1.008   0.391   4.737  0.00  0.00     0.137 A 
ATOM      9  N2  <0> d           1.532   0.029   3.574  0.00  0.00    -0.240 NA
ATOM     10  C8  <0> d           0.997   0.395   2.429  0.00  0.00     0.036 A 
ATOM     11  H5  <0> d          -1.625   2.211   3.560  0.00  0.00     0.089 H 
ATOM     12  H6  <0> d          -1.292   1.974   6.576  0.00  0.00     0.087 H 
ATOM     13  H7  <0> d           0.525   0.729   7.968  0.00  0.00     0.111 H 
ATOM     14  H8  <0> d           1.459   0.077   1.505  0.00  0.00     0.119 H 
ENDROOT
BRANCH   1  15
ATOM     15  O1  <0> d          -0.682   1.547   1.184  0.00  0.00    -0.354 OA
BRANCH  15  16
ATOM     16  C1  <0> d          -0.013   1.086   0.008  0.00  0.00     0.010 C 
ATOM     17  H2  <0> d           0.002  -0.004   0.002  0.00  0.00     0.066 H 
ATOM     18  H3  <0> d           1.010   1.463   0.000  0.00  0.00     0.066 H 
ATOM     19  H4  <0> d          -0.540   1.447  -0.875  0.00  0.00     0.066 H 
ENDBRANCH  15  16
ENDBRANCH   1  15
TORSDOF 2
