REMARK  2 active torsions:
REMARK  status: ('A' for Active; 'I' for Inactive)
REMARK    1  A    between atoms: C1_1  and  C2_2 
REMARK    2  A    between atoms: C2_2  and  N1_3 
ROOT
ATOM      1  C2  <0> d           1.838  -1.738  -0.025  0.00  0.00     0.020 C 
ATOM      2  H4  <0> d           1.140  -2.410   0.496  0.00  0.00     0.067 H 
ATOM      3  H5  <0> d           2.813  -1.754   0.484  0.00  0.00     0.067 H 
ENDROOT
BRANCH   1   4
ATOM      4  C1  <0> d           2.010  -2.204  -1.472  0.00  0.00    -0.059 C 
ATOM      5  H1  <0> d           2.412  -3.228  -1.482  0.00  0.00     0.029 H 
ATOM      6  H2  <0> d           2.708  -1.532  -1.993  0.00  0.00     0.029 H 
ATOM      7  H3  <0> d           1.035  -2.188  -1.981  0.00  0.00     0.029 H 
ENDBRANCH   1   4
BRANCH   1   8
ATOM      8  N1  <0> d           1.303  -0.374  -0.012  0.00  0.00    -0.197 N 
ATOM      9  N4  <0> d           2.034   0.826  -0.013  0.00  0.00    -0.042 NA
ATOM     10  N3  <0> d           1.186   1.796   0.000  0.00  0.00    -0.020 NA
ATOM     11  N2  <0> d          -0.016   1.343   0.009  0.00  0.00    -0.067 NA
ATOM     12  C3  <0> d           0.002  -0.004   0.002  0.00  0.00     0.385 A 
ATOM     13  O1  <0> d          -0.964  -0.744   0.007  0.00  0.00    -0.241 OA
ENDBRANCH   1   8
TORSDOF 2
