REMARK  6 active torsions:
REMARK  status: ('A' for Active; 'I' for Inactive)
REMARK    1  A    between atoms: C1_1  and  C2_2 
REMARK    2  A    between atoms: C2_2  and  C3_3 
REMARK    3  A    between atoms: C2_2  and  C4_4 
REMARK    4  A    between atoms: C2_2  and  C5_5 
REMARK    5  A    between atoms: C5_5  and  C6_6 
REMARK    6  A    between atoms: C7_9  and  N4_11 
ROOT
ATOM      1  C2  <0> d           3.206   2.016  -1.209  0.00  0.00    -0.045 C 
ENDROOT
BRANCH   1   2
ATOM      2  C1  <0> d           3.129   3.537  -1.064  0.00  0.00    -0.069 C 
ATOM      3  H1  <0> d           2.075   3.851  -1.045  0.00  0.00     0.028 H 
ATOM      4  H2  <0> d           3.638   4.013  -1.915  0.00  0.00     0.028 H 
ATOM      5  H3  <0> d           3.619   3.842  -0.127  0.00  0.00     0.028 H 
ENDBRANCH   1   2
BRANCH   1   6
ATOM      6  C3  <0> d           4.672   1.580  -1.235  0.00  0.00    -0.069 C 
ATOM      7  H4  <0> d           4.728   0.486  -1.339  0.00  0.00     0.028 H 
ATOM      8  H5  <0> d           5.162   1.885  -0.298  0.00  0.00     0.028 H 
ATOM      9  H6  <0> d           5.181   2.055  -2.086  0.00  0.00     0.028 H 
ENDBRANCH   1   6
BRANCH   1  10
ATOM     10  C4  <0> d           2.525   1.593  -2.511  0.00  0.00    -0.069 C 
ATOM     11  H7  <0> d           2.580   0.499  -2.615  0.00  0.00     0.028 H 
ATOM     12  H8  <0> d           3.033   2.068  -3.363  0.00  0.00     0.028 H 
ATOM     13  H9  <0> d           1.470   1.906  -2.492  0.00  0.00     0.028 H 
ENDBRANCH   1  10
BRANCH   1  14
ATOM     14  C5  <0> d           2.498   1.355  -0.024  0.00  0.00     0.000 C 
ATOM     15  H10 <0> d           2.554   0.261  -0.128  0.00  0.00     0.045 H 
ATOM     16  H11 <0> d           2.988   1.659   0.912  0.00  0.00     0.045 H 
BRANCH  14  17
ATOM     17  C6  <0> d           1.054   1.784   0.002  0.00  0.00     0.166 A 
ATOM     18  N3  <0> d           0.621   3.019   0.012  0.00  0.00    -0.046 NA
ATOM     19  C7  <0> d          -0.715   3.030   0.025  0.00  0.00     0.716 A 
ATOM     20  N2  <0> d          -1.147   1.791   0.023  0.00  0.00    -0.106 N 
ATOM     21  N1  <0> d          -0.011   0.966   0.018  0.00  0.00    -0.144 NA
ATOM     22  H14 <0> d          -2.152   1.343   0.024  0.00  0.00     0.208 HD
BRANCH  19  23
ATOM     23  N4  <0> d          -1.520   4.171   0.039  0.00  0.00    -0.231 N 
ATOM     24  H12 <0> d          -2.615   4.072   0.049  0.00  0.00     0.174 HD
ATOM     25  H13 <0> d          -1.058   5.169   0.040  0.00  0.00     0.174 HD
ENDBRANCH  19  23
ENDBRANCH  14  17
ENDBRANCH   1  14
TORSDOF 6
