REMARK  3 active torsions:
REMARK  status: ('A' for Active; 'I' for Inactive)
REMARK    1  A    between atoms: C1_1  and  C2_2 
REMARK    2  A    between atoms: C4_5  and  C6_10 
REMARK    3  A    between atoms: C6_10  and  O2_11 
ROOT
ATOM      1  C2  <0> d           2.244   0.848  -0.025  0.00  0.00     0.022 C 
ATOM      2  H1  <0> d           2.675   0.701   0.965  0.00  0.00     0.054 H 
ATOM      3  C3  <0> d           1.427  -0.394  -0.449  0.00  0.00    -0.033 C 
ATOM      4  C4  <0> d           0.002  -0.004   0.002  0.00  0.00     0.033 C 
ATOM      5  H2  <0> d          -0.196  -0.390   1.002  0.00  0.00     0.075 H 
ATOM      6  N1  <0> d          -0.018   1.463   0.010  0.00  0.00    -0.354 N 
ATOM      7  C5  <0> d           1.228   1.969   0.001  0.00  0.00     0.221 C 
ATOM      8  O1  <0> d           1.498   3.151   0.011  0.00  0.00    -0.273 OA
ATOM      9  H6  <0> d           1.772  -1.286   0.075  0.00  0.00     0.037 H 
ATOM     10  H7  <0> d           1.468  -0.538  -1.529  0.00  0.00     0.037 H 
ATOM     11  H8  <0> d          -0.826   2.000   0.017  0.00  0.00     0.162 HD
ENDROOT
BRANCH   4  12
ATOM     12  C6  <0> d          -1.034  -0.542  -0.986  0.00  0.00     0.035 C 
ATOM     13  H9  <0> d          -0.875  -0.087  -1.964  0.00  0.00     0.077 H 
ATOM     14  H10 <0> d          -0.931  -1.624  -1.068  0.00  0.00     0.077 H 
BRANCH  12  15
ATOM     15  O2  <0> d          -2.347  -0.222  -0.521  0.00  0.00    -0.399 OA
ATOM     16  H11 <0> d          -3.056  -0.534  -1.100  0.00  0.00     0.209 HD
ENDBRANCH  12  15
ENDBRANCH   4  12
BRANCH   1  17
ATOM     17  C1  <0> d           3.341   1.143  -1.050  0.00  0.00    -0.065 C 
ATOM     18  H3  <0> d           2.888   1.333  -2.023  0.00  0.00     0.028 H 
ATOM     19  H4  <0> d           3.905   2.021  -0.735  0.00  0.00     0.028 H 
ATOM     20  H5  <0> d           4.011   0.287  -1.121  0.00  0.00     0.028 H 
ENDBRANCH   1  17
TORSDOF 3
