REMARK  2 active torsions:
REMARK  status: ('A' for Active; 'I' for Inactive)
REMARK    1  A    between atoms: C1_1  and  N1_2 
REMARK    2  A    between atoms: C6_7  and  N4_11 
ROOT
ATOM      1  N1  <0> d           0.002  -0.004   0.002  0.00  0.00    -0.254 N 
ATOM      2  C2  <0> d           0.008  -0.821  -1.104  0.00  0.00     0.086 A 
ATOM      3  C3  <0> d          -0.001  -0.586  -2.476  0.00  0.00    -0.053 A 
ATOM      4  C4  <0> d           0.010  -1.646  -3.355  0.00  0.00    -0.079 A 
ATOM      5  C5  <0> d           0.030  -2.952  -2.885  0.00  0.00    -0.055 A 
ATOM      6  C6  <0> d           0.039  -3.209  -1.528  0.00  0.00     0.059 A 
ATOM      7  C7  <0> d           0.029  -2.137  -0.616  0.00  0.00     0.135 A 
ATOM      8  N2  <0> d           0.034  -2.075   0.730  0.00  0.00    -0.128 NA
ATOM      9  N3  <0> d           0.025  -0.850   1.121  0.00  0.00    -0.065 NA
ATOM     10  H4  <0> d          -0.017   0.426  -2.851  0.00  0.00     0.087 H 
ATOM     11  H5  <0> d           0.003  -1.459  -4.418  0.00  0.00     0.083 H 
ATOM     12  H6  <0> d           0.039  -3.773  -3.586  0.00  0.00     0.087 H 
ENDROOT
BRANCH   1  13
ATOM     13  C1  <0> d          -0.018   1.461   0.010  0.00  0.00     0.004 C 
ATOM     14  H1  <0> d           1.005   1.838   0.002  0.00  0.00     0.059 H 
ATOM     15  H2  <0> d          -0.545   1.822  -0.873  0.00  0.00     0.059 H 
ATOM     16  H3  <0> d          -0.528   1.812   0.907  0.00  0.00     0.059 H 
ENDBRANCH   1  13
BRANCH   6  17
ATOM     17  N4  <0> d           0.060  -4.524  -1.064  0.00  0.00    -0.397 N 
ATOM     18  H7  <0> d           0.068  -5.261  -1.695  0.00  0.00     0.156 HD
ATOM     19  H8  <0> d           0.066  -4.702  -0.110  0.00  0.00     0.156 HD
ENDBRANCH   6  17
TORSDOF 2
