REMARK  2 active torsions:
REMARK  status: ('A' for Active; 'I' for Inactive)
REMARK    1  A    between atoms: C1_1  and  C2_2 
REMARK    2  A    between atoms: C7_8  and  C8_10 
ROOT
ATOM      1  C2  <0> d          -0.208   4.236  -0.558  0.00  0.00    -0.042 C 
ATOM      2  H1  <0> d          -0.172   4.748   0.403  0.00  0.00     0.041 H 
ATOM      3  C3  <0> d          -1.550   3.517  -0.708  0.00  0.00    -0.046 C 
ATOM      4  C4  <0> d          -1.616   2.344   0.226  0.00  0.00    -0.106 C 
ATOM      5  C5  <0> d          -0.584   1.816   0.802  0.00  0.00    -0.106 C 
ATOM      6  C6  <0> d           0.823   2.302   0.615  0.00  0.00    -0.037 C 
ATOM      7  C7  <0> d           0.913   3.191  -0.627  0.00  0.00     0.037 C 
ATOM      8  H2  <0> d           0.792   2.582  -1.523  0.00  0.00     0.057 H 
ATOM      9  H6  <0> d          -2.359   4.210  -0.478  0.00  0.00     0.039 H 
ATOM     10  H7  <0> d          -1.657   3.162  -1.733  0.00  0.00     0.039 H 
ATOM     11  H8  <0> d          -2.586   1.916   0.434  0.00  0.00     0.076 H 
ATOM     12  H9  <0> d          -0.745   0.970   1.454  0.00  0.00     0.076 H 
ATOM     13  H10 <0> d           1.128   2.874   1.491  0.00  0.00     0.040 H 
ATOM     14  H11 <0> d           1.488   1.446   0.493  0.00  0.00     0.040 H 
ENDROOT
BRANCH   1  15
ATOM     15  C1  <0> d          -0.038   5.249  -1.692  0.00  0.00    -0.072 C 
ATOM     16  H3  <0> d           0.018   4.721  -2.645  0.00  0.00     0.028 H 
ATOM     17  H4  <0> d          -0.889   5.929  -1.702  0.00  0.00     0.028 H 
ATOM     18  H5  <0> d           0.880   5.817  -1.538  0.00  0.00     0.028 H 
ENDBRANCH   1  15
BRANCH   7  19
ATOM     19  C8  <0> d           2.251   3.884  -0.658  0.00  0.00     0.177 C 
ATOM     20  O1  <0> d           2.424   4.893  -0.015  0.00  0.00    -0.648 OA
ATOM     21  O2  <0> d           3.250   3.382  -1.400  0.00  0.00    -0.648 OA
ENDBRANCH   7  19
TORSDOF 2
