REMARK  3 active torsions:
REMARK  status: ('A' for Active; 'I' for Inactive)
REMARK    1  A    between atoms: C1_1  and  C2_2 
REMARK    2  A    between atoms: C4_4  and  N1_10 
REMARK    3  A    between atoms: C6_6  and  C8_9 
ROOT
ATOM      1  C2  <0> d           0.002  -0.004   0.002  0.00  0.00    -0.021 A 
ATOM      2  C3  <0> d           0.006  -0.688  -1.198  0.00  0.00    -0.049 A 
ATOM      3  C4  <0> d           0.025  -2.076  -1.205  0.00  0.00     0.026 A 
ATOM      4  C5  <0> d           0.041  -2.775  -0.005  0.00  0.00    -0.049 A 
ATOM      5  C6  <0> d           0.037  -2.087   1.193  0.00  0.00    -0.021 A 
ATOM      6  C7  <0> d           0.023  -0.702   1.198  0.00  0.00     0.128 A 
ATOM      7  F1  <0> d           0.025  -0.032   2.370  0.00  0.00    -0.205 F 
ATOM      8  H4  <0> d          -0.007  -0.143  -2.131  0.00  0.00     0.087 H 
ATOM      9  H5  <0> d           0.055  -3.854  -0.008  0.00  0.00     0.087 H 
ENDROOT
BRANCH   1  10
ATOM     10  C1  <0> d          -0.018   1.503   0.010  0.00  0.00    -0.048 C 
ATOM     11  H1  <0> d           1.004   1.880   0.003  0.00  0.00     0.033 H 
ATOM     12  H2  <0> d          -0.545   1.864  -0.873  0.00  0.00     0.033 H 
ATOM     13  H3  <0> d          -0.529   1.854   0.907  0.00  0.00     0.033 H 
ENDBRANCH   1  10
BRANCH   5  14
ATOM     14  C8  <0> d           0.054  -2.844   2.496  0.00  0.00    -0.048 C 
ATOM     15  H6  <0> d           1.085  -3.012   2.805  0.00  0.00     0.033 H 
ATOM     16  H7  <0> d          -0.465  -2.264   3.260  0.00  0.00     0.033 H 
ATOM     17  H8  <0> d          -0.448  -3.803   2.365  0.00  0.00     0.033 H 
ENDBRANCH   5  14
BRANCH   3  18
ATOM     18  N1  <0> d           0.028  -2.770  -2.419  0.00  0.00    -0.399 N 
ATOM     19  H9  <0> d           0.017  -2.282  -3.257  0.00  0.00     0.156 HD
ATOM     20  H10 <0> d           0.042  -3.740  -2.423  0.00  0.00     0.156 HD
ENDBRANCH   3  18
TORSDOF 3
