REMARK  3 active torsions:
REMARK  status: ('A' for Active; 'I' for Inactive)
REMARK    1  A    between atoms: C1_1  and  O1_2 
REMARK    2  A    between atoms: O1_2  and  C2_3 
REMARK    3  A    between atoms: C2_3  and  C3_5 
ROOT
ATOM      1  C3  <0> d          -0.817   1.643   3.667  0.00  0.00     0.235 C 
ATOM      2  H1  <0> d          -1.909   1.550   3.578  0.00  0.00     0.107 H 
ATOM      3  C4  <0> d          -0.409   3.087   3.969  0.00  0.00     0.057 C 
ATOM      4  O3  <0> d          -0.969   3.482   5.225  0.00  0.00    -0.387 OA
ATOM      5  C5  <0> d          -0.562   2.658   6.321  0.00  0.00     0.044 C 
ATOM      6  C6  <0> d          -0.972   1.209   6.042  0.00  0.00     0.132 C 
ATOM      7  N1  <0> d          -0.379   0.774   4.769  0.00  0.00     0.102 N 
ATOM      8  H5  <0> d           0.688   3.156   4.016  0.00  0.00     0.078 H 
ATOM      9  H6  <0> d          -0.784   3.748   3.174  0.00  0.00     0.078 H 
ATOM     10  H7  <0> d           0.530   2.716   6.438  0.00  0.00     0.076 H 
ATOM     11  H8  <0> d          -1.050   3.008   7.243  0.00  0.00     0.076 H 
ATOM     12  H9  <0> d          -0.612   0.564   6.856  0.00  0.00     0.082 H 
ATOM     13  H10 <0> d          -2.068   1.144   5.980  0.00  0.00     0.082 H 
ATOM     14  H11 <0> d          -0.692  -0.261   4.567  0.00  0.00     0.317 HD
ENDROOT
BRANCH   1  15
ATOM     15  C2  <0> d          -0.166   1.194   2.384  0.00  0.00     0.294 C 
ATOM     16  O2  <0> d           0.829   0.510   2.418  0.00  0.00    -0.263 OA
BRANCH  15  17
ATOM     17  O1  <0> d          -0.692   1.554   1.203  0.00  0.00    -0.325 OA
BRANCH  17  18
ATOM     18  C1  <0> d          -0.013   1.086   0.008  0.00  0.00     0.013 C 
ATOM     19  H2  <0> d          -0.545   1.450  -0.883  0.00  0.00     0.067 H 
ATOM     20  H3  <0> d           0.002  -0.014   0.002  0.00  0.00     0.067 H 
ATOM     21  H4  <0> d           1.019   1.466   0.000  0.00  0.00     0.067 H 
ENDBRANCH  17  18
ENDBRANCH  15  17
ENDBRANCH   1  15
TORSDOF 3
