REMARK  2 active torsions:
REMARK  status: ('A' for Active; 'I' for Inactive)
REMARK    1  A    between atoms: C1_1  and  O1_2 
REMARK    2  A    between atoms: O1_2  and  C2_3 
ROOT
ATOM      1  C2  <0> d          -0.787   2.890   1.346  0.00  0.00     0.089 A 
ATOM      2  C3  <0> d          -0.259   3.749   0.395  0.00  0.00    -0.046 A 
ATOM      3  C4  <0> d          -0.367   5.117   0.560  0.00  0.00    -0.043 A 
ATOM      4  C5  <0> d          -1.003   5.640   1.676  0.00  0.00     0.118 A 
ATOM      5  C6  <0> d          -1.534   4.798   2.632  0.00  0.00    -0.023 A 
ATOM      6  C7  <0> d          -1.436   3.414   2.473  0.00  0.00     0.080 A 
ATOM      7  C8  <0> d          -1.990   2.534   3.458  0.00  0.00     0.102 C 
ATOM      8  N1  <0> d          -2.430   1.837   4.239  0.00  0.00    -0.191 NA
ATOM      9  F1  <0> d          -1.103   6.979   1.827  0.00  0.00    -0.206 F 
ATOM     10  H4  <0> d           0.237   3.349  -0.477  0.00  0.00     0.087 H 
ATOM     11  H5  <0> d           0.047   5.781  -0.184  0.00  0.00     0.088 H 
ATOM     12  H6  <0> d          -2.028   5.209   3.500  0.00  0.00     0.090 H 
ENDROOT
BRANCH   1  13
ATOM     13  O1  <0> d          -0.682   1.547   1.184  0.00  0.00    -0.354 OA
BRANCH  13  14
ATOM     14  C1  <0> d          -0.013   1.086   0.008  0.00  0.00     0.010 C 
ATOM     15  H1  <0> d           0.002  -0.004   0.002  0.00  0.00     0.066 H 
ATOM     16  H2  <0> d           1.010   1.463   0.000  0.00  0.00     0.066 H 
ATOM     17  H3  <0> d          -0.540   1.447  -0.875  0.00  0.00     0.066 H 
ENDBRANCH  13  14
ENDBRANCH   1  13
TORSDOF 2
