REMARK  3 active torsions:
REMARK  status: ('A' for Active; 'I' for Inactive)
REMARK    1  A    between atoms: C3_3  and  C5_5 
REMARK    2  A    between atoms: C6_7  and  C7_10 
REMARK    3  A    between atoms: C7_10  and  O2_11 
ROOT
ATOM      1  C1  <0> d           1.518   1.476  -0.004  0.00  0.00    -0.064 C 
ATOM      2  C2  <0> d          -0.019   1.534   0.011  0.00  0.00    -0.055 C 
ATOM      3  C3  <0> d           0.002  -0.004   0.002  0.00  0.00     0.012 C 
ATOM      4  C4  <0> d           1.394   0.090   0.649  0.00  0.00    -0.055 C 
ATOM      5  H1  <0> d           1.944   1.450  -1.007  0.00  0.00     0.033 H 
ATOM      6  H2  <0> d           1.989   2.221   0.637  0.00  0.00     0.033 H 
ATOM      7  H3  <0> d          -0.448   1.969  -0.892  0.00  0.00     0.034 H 
ATOM      8  H4  <0> d          -0.431   1.960   0.925  0.00  0.00     0.034 H 
ATOM      9  H5  <0> d           0.014  -0.435  -0.999  0.00  0.00     0.052 H 
ATOM     10  H6  <0> d           1.368   0.121   1.738  0.00  0.00     0.034 H 
ATOM     11  H7  <0> d           2.105  -0.640   0.262  0.00  0.00     0.034 H 
ENDROOT
BRANCH   3  12
ATOM     12  C5  <0> d          -1.039  -0.627   0.897  0.00  0.00     0.177 A 
ATOM     13  O1  <0> d          -1.154  -0.462   2.218  0.00  0.00    -0.196 OA
ATOM     14  N2  <0> d          -2.098  -1.102   2.631  0.00  0.00    -0.109 NA
ATOM     15  C6  <0> d          -2.678  -1.731   1.653  0.00  0.00     0.179 A 
ATOM     16  N1  <0> d          -2.007  -1.429   0.526  0.00  0.00    -0.206 NA
BRANCH  15  17
ATOM     17  C7  <0> d          -3.883  -2.629   1.760  0.00  0.00     0.075 C 
ATOM     18  H8  <0> d          -3.836  -3.394   0.985  0.00  0.00     0.086 H 
ATOM     19  H9  <0> d          -3.896  -3.104   2.740  0.00  0.00     0.086 H 
BRANCH  17  20
ATOM     20  O2  <0> d          -5.072  -1.853   1.591  0.00  0.00    -0.393 OA
ATOM     21  H10 <0> d          -5.888  -2.367   1.647  0.00  0.00     0.209 HD
ENDBRANCH  17  20
ENDBRANCH  15  17
ENDBRANCH   3  12
TORSDOF 3
