REMARK  2 active torsions:
REMARK  status: ('A' for Active; 'I' for Inactive)
REMARK    1  A    between atoms: C2_2  and  O2_9 
REMARK    2  A    between atoms: C5_6  and  O1_8 
ROOT
ATOM      1  C1  <0> d          -0.019   1.542   0.011  0.00  0.00    -0.011 C 
ATOM      2  C2  <0> d           1.492   1.869  -0.002  0.00  0.00     0.054 C 
ATOM      3  H1  <0> d           1.838   2.027  -1.024  0.00  0.00     0.089 H 
ATOM      4  C3  <0> d           2.154   0.648   0.594  0.00  0.00    -0.077 C 
ATOM      5  C4  <0> d           1.341  -0.373   0.596  0.00  0.00    -0.077 C 
ATOM      6  C5  <0> d           0.002  -0.004   0.002  0.00  0.00     0.054 C 
ATOM      7  H2  <0> d          -0.077  -0.379  -1.018  0.00  0.00     0.089 H 
ATOM      8  H3  <0> d          -0.494   1.922   0.915  0.00  0.00     0.041 H 
ATOM      9  H4  <0> d          -0.511   1.932  -0.881  0.00  0.00     0.041 H 
ATOM     10  H5  <0> d           3.167   0.624   0.969  0.00  0.00     0.080 H 
ATOM     11  H6  <0> d           1.593  -1.354   0.973  0.00  0.00     0.080 H 
ENDROOT
BRANCH   2  12
ATOM     12  O2  <0> d           1.759   3.023   0.797  0.00  0.00    -0.392 OA
ATOM     13  H8  <0> d           2.693   3.274   0.826  0.00  0.00     0.210 HD
ENDBRANCH   2  12
BRANCH   6  14
ATOM     14  O1  <0> d          -1.059  -0.521   0.807  0.00  0.00    -0.392 OA
ATOM     15  H7  <0> d          -1.095  -1.487   0.839  0.00  0.00     0.210 HD
ENDBRANCH   6  14
TORSDOF 2
