REMARK  4 active torsions:
REMARK  status: ('A' for Active; 'I' for Inactive)
REMARK    1  A    between atoms: N1_3  and  C5_9 
REMARK    2  A    between atoms: N2_6  and  C4_7 
REMARK    3  A    between atoms: C4_7  and  O2_8 
REMARK    4  A    between atoms: C5_9  and  O3_10 
ROOT
ATOM      1  C1  <0> d           2.220   0.835  -0.015  0.00  0.00     0.016 A 
ATOM      2  C2  <0> d           1.397  -0.468  -0.014  0.00  0.00     0.016 A 
ATOM      3  N1  <0> d           0.002  -0.004   0.002  0.00  0.00    -0.311 N 
ATOM      4  C3  <0> d          -0.016   1.335   0.009  0.00  0.00     0.323 A 
ATOM      5  O1  <0> d          -1.044   1.984   0.018  0.00  0.00    -0.247 OA
ATOM      6  N2  <0> d           1.201   1.895   0.001  0.00  0.00    -0.311 N 
ATOM      7  H1  <0> d           2.846   0.893   0.876  0.00  0.00     0.067 H 
ATOM      8  H2  <0> d           2.831   0.901  -0.915  0.00  0.00     0.067 H 
ATOM      9  H3  <0> d           1.615  -1.057   0.877  0.00  0.00     0.067 H 
ATOM     10  H4  <0> d           1.597  -1.050  -0.914  0.00  0.00     0.067 H 
ENDROOT
BRANCH   3  11
ATOM     11  C5  <0> d          -1.180  -0.869   0.009  0.00  0.00     0.081 C 
ATOM     12  H8  <0> d          -0.885  -1.886   0.266  0.00  0.00     0.107 H 
ATOM     13  H9  <0> d          -1.895  -0.501   0.745  0.00  0.00     0.107 H 
BRANCH  11  14
ATOM     14  O3  <0> d          -1.783  -0.862  -1.287  0.00  0.00    -0.382 OA
ATOM     15  H10 <0> d          -2.574  -1.414  -1.356  0.00  0.00     0.211 HD
ENDBRANCH  11  14
ENDBRANCH   3  11
BRANCH   6  16
ATOM     16  C4  <0> d           1.473   3.334   0.006  0.00  0.00     0.081 C 
ATOM     17  H5  <0> d           2.514   3.508  -0.270  0.00  0.00     0.107 H 
ATOM     18  H6  <0> d           0.820   3.830  -0.712  0.00  0.00     0.107 H 
BRANCH  16  19
ATOM     19  O2  <0> d           1.232   3.860   1.313  0.00  0.00    -0.382 OA
ATOM     20  H7  <0> d           1.393   4.811   1.390  0.00  0.00     0.211 HD
ENDBRANCH  16  19
ENDBRANCH   6  16
TORSDOF 4
