REMARK  4 active torsions:
REMARK  status: ('A' for Active; 'I' for Inactive)
REMARK    1  A    between atoms: C1_1  and  N1_2 
REMARK    2  A    between atoms: N1_2  and  C2_3 
REMARK    3  A    between atoms: C3_4  and  N5_10 
REMARK    4  A    between atoms: C4_5  and  N4_9 
ROOT
ATOM      1  C2  <0> d          -1.224   1.644   0.017  0.00  0.00     0.154 A 
ATOM      2  C3  <0> d          -2.430   0.941   0.013  0.00  0.00     0.118 A 
ATOM      3  C4  <0> d          -3.619   1.671   0.027  0.00  0.00     0.152 A 
ATOM      4  N2  <0> d          -3.559   3.001   0.034  0.00  0.00    -0.222 NA
ATOM      5  C5  <0> d          -2.399   3.626   0.033  0.00  0.00     0.091 A 
ATOM      6  N3  <0> d          -1.254   2.975   0.024  0.00  0.00    -0.222 NA
ATOM      7  H5  <0> d          -2.387   4.706   0.039  0.00  0.00     0.146 H 
ENDROOT
BRANCH   1   8
ATOM      8  N1  <0> d          -0.011   0.966   0.007  0.00  0.00    -0.377 N 
ATOM      9  H4  <0> d           0.002  -0.004   0.002  0.00  0.00     0.160 HD
BRANCH   8  10
ATOM     10  C1  <0> d           1.248   1.716  -0.001  0.00  0.00    -0.019 C 
ATOM     11  H1  <0> d           1.305   2.338   0.892  0.00  0.00     0.056 H 
ATOM     12  H2  <0> d           2.086   1.019  -0.012  0.00  0.00     0.056 H 
ATOM     13  H3  <0> d           1.288   2.348  -0.888  0.00  0.00     0.056 H 
ENDBRANCH   8  10
ENDBRANCH   1   8
BRANCH   2  14
ATOM     14  N5  <0> d          -2.446  -0.464  -0.001  0.00  0.00    -0.393 N 
ATOM     15  H8  <0> d          -1.611  -0.958  -0.007  0.00  0.00     0.156 HD
ATOM     16  H9  <0> d          -3.291  -0.939  -0.003  0.00  0.00     0.156 HD
ENDBRANCH   2  14
BRANCH   3  17
ATOM     17  N4  <0> d          -4.847   1.020   0.030  0.00  0.00    -0.382 N 
ATOM     18  H6  <0> d          -5.669   1.535   0.036  0.00  0.00     0.157 HD
ATOM     19  H7  <0> d          -4.882   0.051   0.025  0.00  0.00     0.157 HD
ENDBRANCH   3  17
TORSDOF 4
