REMARK  0 active torsions:
REMARK  status: ('A' for Active; 'I' for Inactive)
ROOT
ATOM      1  C1  <0> d          -0.016   1.344   0.009  0.00  0.00    -0.022 A 
ATOM      2  C2  <0> d           1.314   1.799  -0.001  0.00  0.00     0.032 A 
ATOM      3  N1  <0> d           2.098   0.758  -0.014  0.00  0.00    -0.140 NA
ATOM      4  O1  <0> d           1.284  -0.401  -0.012  0.00  0.00    -0.206 OA
ATOM      5  C3  <0> d           0.002  -0.004   0.002  0.00  0.00     0.148 A 
ATOM      6 Br1  <0> d          -1.512  -1.137   0.010  0.00  0.00    -0.021 Br
ATOM      7  H1  <0> d          -0.899   1.966   0.025  0.00  0.00     0.091 H 
ATOM      8  H2  <0> d           1.631   2.832   0.002  0.00  0.00     0.118 H 
ENDROOT
TORSDOF 0
