REMARK  2 active torsions:
REMARK  status: ('A' for Active; 'I' for Inactive)
REMARK    1  A    between atoms: C3_3  and  C5_7 
REMARK    2  A    between atoms: C5_7  and  C6_8 
ROOT
ATOM      1  C1  <0> d           1.473   1.857  -0.002  0.00  0.00    -0.043 C 
ATOM      2  C2  <0> d           2.084   0.763  -0.920  0.00  0.00    -0.038 C 
ATOM      3  C3  <0> d           1.229  -0.474  -0.569  0.00  0.00     0.047 C 
ATOM      4  H1  <0> d           1.758  -1.096   0.152  0.00  0.00     0.084 H 
ATOM      5  O1  <0> d           0.002  -0.004   0.002  0.00  0.00    -0.385 OA
ATOM      6  C4  <0> d          -0.017   1.432   0.010  0.00  0.00     0.020 C 
ATOM      7  H2  <0> d           1.595   2.849  -0.438  0.00  0.00     0.036 H 
ATOM      8  H3  <0> d           1.901   1.815   0.999  0.00  0.00     0.036 H 
ATOM      9  H4  <0> d           3.132   0.593  -0.674  0.00  0.00     0.036 H 
ATOM     10  H5  <0> d           1.971   1.027  -1.971  0.00  0.00     0.036 H 
ATOM     11  H6  <0> d          -0.525   1.809  -0.878  0.00  0.00     0.074 H 
ATOM     12  H7  <0> d          -0.508   1.799   0.911  0.00  0.00     0.074 H 
ENDROOT
BRANCH   3  13
ATOM     13  C5  <0> d           0.937  -1.281  -1.835  0.00  0.00     0.040 C 
ATOM     14  H8  <0> d           0.323  -0.686  -2.512  0.00  0.00     0.052 H 
ATOM     15  H9  <0> d           1.875  -1.538  -2.327  0.00  0.00     0.052 H 
BRANCH  13  16
ATOM     16  C6  <0> d           0.200  -2.543  -1.468  0.00  0.00     0.175 C 
ATOM     17  O2  <0> d          -0.064  -2.774  -0.311  0.00  0.00    -0.648 OA
ATOM     18  O3  <0> d          -0.163  -3.412  -2.425  0.00  0.00    -0.648 OA
ENDBRANCH  13  16
ENDBRANCH   3  13
TORSDOF 2
