REMARK  5 active torsions:
REMARK  status: ('A' for Active; 'I' for Inactive)
REMARK    1  A    between atoms: C1_1  and  C2_2 
REMARK    2  A    between atoms: C7_7  and  C8_8 
REMARK    3  A    between atoms: C8_8  and  C9_9 
REMARK    4  A    between atoms: C8_8  and  C10_10 
REMARK    5  A    between atoms: C8_8  and  O1_11 
ROOT
ATOM      1  C2  <0> d           3.022   1.568  -1.482  0.00  0.00    -0.053 A 
ATOM      2  C3  <0> d           3.601   1.264  -2.700  0.00  0.00    -0.077 A 
ATOM      3  C4  <0> d           2.912   0.498  -3.621  0.00  0.00    -0.082 A 
ATOM      4  C5  <0> d           1.643   0.036  -3.324  0.00  0.00    -0.082 A 
ATOM      5  C6  <0> d           1.067   0.335  -2.104  0.00  0.00    -0.073 A 
ATOM      6  C7  <0> d           1.754   1.105  -1.185  0.00  0.00    -0.019 A 
ATOM      7  H4  <0> d           4.592   1.625  -2.932  0.00  0.00     0.084 H 
ATOM      8  H5  <0> d           3.364   0.261  -4.573  0.00  0.00     0.083 H 
ATOM      9  H6  <0> d           1.104  -0.563  -4.044  0.00  0.00     0.083 H 
ATOM     10  H7  <0> d           0.077  -0.031  -1.870  0.00  0.00     0.084 H 
ENDROOT
BRANCH   6  11
ATOM     11  C8  <0> d           1.124   1.435   0.143  0.00  0.00     0.078 C 
BRANCH  11  12
ATOM     12  C9  <0> d           1.967   0.837   1.271  0.00  0.00    -0.044 C 
ATOM     13  H8  <0> d           1.446   0.964   2.220  0.00  0.00     0.032 H 
ATOM     14  H9  <0> d           2.124  -0.225   1.083  0.00  0.00     0.032 H 
ATOM     15  H10 <0> d           2.930   1.345   1.314  0.00  0.00     0.032 H 
ENDBRANCH  11  12
BRANCH  11  16
ATOM     16  C10 <0> d          -0.289   0.850   0.197  0.00  0.00    -0.044 C 
ATOM     17  H11 <0> d          -0.890   1.277  -0.607  0.00  0.00     0.032 H 
ATOM     18  H12 <0> d          -0.239  -0.232   0.078  0.00  0.00     0.032 H 
ATOM     19  H13 <0> d          -0.745   1.089   1.158  0.00  0.00     0.032 H 
ENDBRANCH  11  16
BRANCH  11  20
ATOM     20  O1  <0> d           1.058   2.854   0.300  0.00  0.00    -0.386 OA
ATOM     21  H14 <0> d           0.538   3.301  -0.382  0.00  0.00     0.211 HD
ENDBRANCH  11  20
ENDBRANCH   6  11
BRANCH   1  22
ATOM     22  C1  <0> d           3.774   2.402  -0.477  0.00  0.00    -0.051 C 
ATOM     23  H1  <0> d           4.400   1.755   0.137  0.00  0.00     0.033 H 
ATOM     24  H2  <0> d           4.402   3.123  -1.001  0.00  0.00     0.033 H 
ATOM     25  H3  <0> d           3.065   2.932   0.158  0.00  0.00     0.033 H 
ENDBRANCH   1  22
TORSDOF 5
