REMARK  1 active torsions:
REMARK  status: ('A' for Active; 'I' for Inactive)
REMARK    1  A    between atoms: C2_2  and  C5_6 
ROOT
ATOM      1  C1  <0> d          -0.218   1.707  -1.384  0.00  0.00    -0.025 C 
ATOM      2  C2  <0> d           0.821   2.765  -0.979  0.00  0.00     0.035 C 
ATOM      3  C3  <0> d           1.388   1.721  -0.002  0.00  0.00    -0.025 C 
ATOM      4  C4  <0> d          -0.013   1.086   0.008  0.00  0.00     0.074 C 
ATOM      5  O1  <0> d          -0.878   1.623   1.010  0.00  0.00    -0.235 OA
ATOM      6  H1  <0> d           0.041   0.968  -2.157  0.00  0.00     0.038 H 
ATOM      7  H2  <0> d          -1.270   2.005  -1.500  0.00  0.00     0.038 H 
ATOM      8  H3  <0> d           0.541   3.781  -0.664  0.00  0.00     0.056 H 
ATOM      9  H4  <0> d           2.218   1.182  -0.482  0.00  0.00     0.038 H 
ATOM     10  H5  <0> d           1.754   2.227   0.904  0.00  0.00     0.038 H 
ATOM     11  H6  <0> d          -0.207   0.029   0.243  0.00  0.00     0.088 H 
ENDROOT
BRANCH   2  12
ATOM     12  C5  <0> d           1.773   3.132  -2.088  0.00  0.00     0.177 C 
ATOM     13  O2  <0> d           2.864   2.616  -2.144  0.00  0.00    -0.648 OA
ATOM     14  O3  <0> d           1.408   4.034  -3.014  0.00  0.00    -0.648 OA
ENDBRANCH   2  12
TORSDOF 1
