REMARK  3 active torsions:
REMARK  status: ('A' for Active; 'I' for Inactive)
REMARK    1  A    between atoms: C1_1  and  N1_2 
REMARK    2  A    between atoms: C3_4  and  O3_11 
REMARK    3  A    between atoms: N2_7  and  C6_10 
ROOT
ATOM      1  N1  <0> d           0.002  -0.004   0.002  0.00  0.00    -0.311 N 
ATOM      2  C2  <0> d           0.006  -0.678  -1.194  0.00  0.00     0.021 A 
ATOM      3  C3  <0> d           0.024  -2.029  -1.200  0.00  0.00     0.150 A 
ATOM      4  C4  <0> d           0.039  -2.723   0.039  0.00  0.00     0.285 A 
ATOM      5  O1  <0> d           0.056  -3.941   0.060  0.00  0.00    -0.265 OA
ATOM      6  N2  <0> d           0.035  -2.022   1.190  0.00  0.00    -0.268 N 
ATOM      7  C5  <0> d           0.022  -0.677   1.167  0.00  0.00     0.330 A 
ATOM      8  O2  <0> d           0.024  -0.060   2.215  0.00  0.00    -0.246 OA
ATOM      9  H4  <0> d          -0.007  -0.131  -2.126  0.00  0.00     0.116 H 
ENDROOT
BRANCH   1  10
ATOM     10  C1  <0> d          -0.018   1.461   0.010  0.00  0.00    -0.010 C 
ATOM     11  H1  <0> d           1.005   1.838   0.002  0.00  0.00     0.057 H 
ATOM     12  H2  <0> d          -0.545   1.822  -0.873  0.00  0.00     0.057 H 
ATOM     13  H3  <0> d          -0.528   1.812   0.907  0.00  0.00     0.057 H 
ENDBRANCH   1  10
BRANCH   6  14
ATOM     14  C6  <0> d           0.051  -2.729   2.474  0.00  0.00    -0.007 C 
ATOM     15  H5  <0> d           0.065  -3.804   2.296  0.00  0.00     0.057 H 
ATOM     16  H6  <0> d           0.940  -2.442   3.035  0.00  0.00     0.057 H 
ATOM     17  H7  <0> d          -0.840  -2.466   3.044  0.00  0.00     0.057 H 
ENDBRANCH   6  14
BRANCH   3  18
ATOM     18  O3  <0> d           0.027  -2.716  -2.376  0.00  0.00    -0.355 OA
ATOM     19  H8  <0> d           0.041  -3.677  -2.271  0.00  0.00     0.218 HD
ENDBRANCH   3  18
TORSDOF 3
