REMARK  7 active torsions:
REMARK  status: ('A' for Active; 'I' for Inactive)
REMARK    1  A    between atoms: C1_1  and  C2_2 
REMARK    2  A    between atoms: C2_2  and  C3_3 
REMARK    3  A    between atoms: C2_2  and  C4_4 
REMARK    4  A    between atoms: C2_2  and  C7_9 
REMARK    5  A    between atoms: C4_4  and  C5_5 
REMARK    6  A    between atoms: C5_5  and  O2_7 
REMARK    7  A    between atoms: O2_7  and  C6_8 
ROOT
ATOM      1  C2  <0> d          -2.479   0.930   0.019  0.00  0.00     0.050 C 
ENDROOT
BRANCH   1   2
ATOM      2  C1  <0> d          -2.392   0.058  -1.236  0.00  0.00    -0.059 C 
ATOM      3  H1  <0> d          -1.440  -0.474  -1.243  0.00  0.00     0.029 H 
ATOM      4  H2  <0> d          -3.211  -0.661  -1.236  0.00  0.00     0.029 H 
ATOM      5  H3  <0> d          -2.462   0.689  -2.122  0.00  0.00     0.029 H 
ENDBRANCH   1   2
BRANCH   1   6
ATOM      6  C3  <0> d          -2.380   0.045   1.263  0.00  0.00    -0.059 C 
ATOM      7  H4  <0> d          -2.442   0.666   2.156  0.00  0.00     0.029 H 
ATOM      8  H5  <0> d          -3.199  -0.675   1.263  0.00  0.00     0.029 H 
ATOM      9  H6  <0> d          -1.429  -0.487   1.255  0.00  0.00     0.029 H 
ENDBRANCH   1   6
BRANCH   1  10
ATOM     10  C4  <0> d          -1.329   1.940   0.019  0.00  0.00     0.032 C 
ATOM     11  H7  <0> d          -1.391   2.561   0.913  0.00  0.00     0.050 H 
ATOM     12  H8  <0> d          -1.400   2.570  -0.867  0.00  0.00     0.050 H 
BRANCH  10  13
ATOM     13  C5  <0> d          -0.014   1.204   0.009  0.00  0.00     0.259 C 
ATOM     14  O1  <0> d           0.002  -0.004   0.002  0.00  0.00    -0.265 OA
BRANCH  13  15
ATOM     15  O2  <0> d           1.139   1.891   0.001  0.00  0.00    -0.326 OA
BRANCH  15  16
ATOM     16  C6  <0> d           2.367   1.117  -0.015  0.00  0.00     0.013 C 
ATOM     17  H9  <0> d           3.223   1.792  -0.019  0.00  0.00     0.067 H 
ATOM     18  H10 <0> d           2.409   0.484   0.872  0.00  0.00     0.067 H 
ATOM     19  H11 <0> d           2.392   0.493  -0.908  0.00  0.00     0.067 H 
ENDBRANCH  15  16
ENDBRANCH  13  15
ENDBRANCH  10  13
ENDBRANCH   1  10
BRANCH   1  20
ATOM     20  C7  <0> d          -3.794   1.665   0.029  0.00  0.00     0.181 C 
ATOM     21  O3  <0> d          -3.810   2.874   0.036  0.00  0.00    -0.647 OA
ATOM     22  O4  <0> d          -4.947   0.979   0.031  0.00  0.00    -0.647 OA
ENDBRANCH   1  20
TORSDOF 7
