REMARK  6 active torsions:
REMARK  status: ('A' for Active; 'I' for Inactive)
REMARK    1  A    between atoms: C1_1  and  C2_2 
REMARK    2  A    between atoms: C2_2  and  C3_3 
REMARK    3  A    between atoms: C2_2  and  C4_4 
REMARK    4  A    between atoms: C4_4  and  C5_5 
REMARK    5  A    between atoms: C5_5  and  C6_7 
REMARK    6  A    between atoms: C5_5  and  O2_9 
ROOT
ATOM      1  C2  <0> d           0.463   5.151  -1.183  0.00  0.00    -0.058 C 
ATOM      2  H5  <0> d           1.492   5.497  -1.088  0.00  0.00     0.039 H 
ENDROOT
BRANCH   1   3
ATOM      3  C1  <0> d          -0.139   5.691  -2.482  0.00  0.00    -0.073 C 
ATOM      4  H2  <0> d          -1.147   5.296  -2.607  0.00  0.00     0.028 H 
ATOM      5  H3  <0> d          -0.178   6.780  -2.439  0.00  0.00     0.028 H 
ATOM      6  H4  <0> d           0.479   5.383  -3.325  0.00  0.00     0.028 H 
ENDBRANCH   1   3
BRANCH   1   7
ATOM      7  C3  <0> d          -0.357   5.654   0.007  0.00  0.00    -0.073 C 
ATOM      8  H6  <0> d           0.072   5.269   0.932  0.00  0.00     0.028 H 
ATOM      9  H7  <0> d          -0.341   6.744   0.025  0.00  0.00     0.028 H 
ATOM     10  H8  <0> d          -1.386   5.308  -0.088  0.00  0.00     0.028 H 
ENDBRANCH   1   7
BRANCH   1  11
ATOM     11  C4  <0> d           0.440   3.622  -1.208  0.00  0.00    -0.029 C 
ATOM     12  H9  <0> d           0.935   3.265  -2.111  0.00  0.00     0.038 H 
ATOM     13  H10 <0> d          -0.593   3.273  -1.198  0.00  0.00     0.038 H 
BRANCH  11  14
ATOM     14  C5  <0> d           1.171   3.080   0.022  0.00  0.00     0.119 C 
ATOM     15  H1  <0> d           0.713   3.485   0.925  0.00  0.00     0.100 H 
BRANCH  14  16
ATOM     16  C6  <0> d           1.078   1.576   0.041  0.00  0.00     0.203 C 
ATOM     17  O1  <0> d           2.077   0.907  -0.078  0.00  0.00    -0.646 OA
ATOM     18  O3  <0> d          -0.116   0.980   0.191  0.00  0.00    -0.646 OA
ENDBRANCH  14  16
BRANCH  14  19
ATOM     19  O2  <0> d           2.545   3.471  -0.030  0.00  0.00    -0.385 OA
ATOM     20  H11 <0> d           3.017   3.146  -0.809  0.00  0.00     0.210 HD
ENDBRANCH  14  19
ENDBRANCH  11  14
ENDBRANCH   1  11
TORSDOF 6
