REMARK  4 active torsions:
REMARK  status: ('A' for Active; 'I' for Inactive)
REMARK    1  A    between atoms: C1_1  and  C2_2 
REMARK    2  A    between atoms: C2_2  and  C3_3 
REMARK    3  A    between atoms: C2_2  and  C4_4 
REMARK    4  A    between atoms: C2_2  and  N1_6 
ROOT
ATOM      1  C4  <0> d           0.002  -0.004   0.002  0.00  0.00    -0.086 C 
ATOM      2  C5  <0> d           0.018  -1.178  -0.004  0.00  0.00    -0.151 C 
ATOM      3  H7  <0> d           0.032  -2.228  -0.010  0.00  0.00     0.166 H 
ENDROOT
BRANCH   1   4
ATOM      4  C2  <0> d          -0.018   1.468   0.010  0.00  0.00     0.091 C 
BRANCH   4   5
ATOM      5  C1  <0> d          -0.758   1.975  -1.229  0.00  0.00    -0.043 C 
ATOM      6  H1  <0> d          -1.780   1.597  -1.222  0.00  0.00     0.032 H 
ATOM      7  H2  <0> d          -0.773   3.064  -1.223  0.00  0.00     0.032 H 
ATOM      8  H3  <0> d          -0.248   1.623  -2.126  0.00  0.00     0.032 H 
ENDBRANCH   4   5
BRANCH   4   9
ATOM      9  C3  <0> d          -0.734   1.961   1.269  0.00  0.00    -0.043 C 
ATOM     10  H4  <0> d          -0.207   1.600   2.152  0.00  0.00     0.032 H 
ATOM     11  H5  <0> d          -0.749   3.051   1.275  0.00  0.00     0.032 H 
ATOM     12  H6  <0> d          -1.757   1.584   1.277  0.00  0.00     0.032 H 
ENDBRANCH   4   9
BRANCH   4  13
ATOM     13  N1  <0> d           1.357   1.975  -0.000  0.00  0.00    -0.347 N 
ATOM     14  C9  <0> d           2.303   1.725   0.949  0.00  0.00    -0.019 A 
ATOM     15  C8  <0> d           3.437   2.361   0.592  0.00  0.00    -0.067 A 
ATOM     16  H11 <0> d           2.167   1.122   1.835  0.00  0.00     0.111 H 
ATOM     17  C7  <0> d           3.181   3.029  -0.622  0.00  0.00    -0.067 A 
ATOM     18  H10 <0> d           4.369   2.360   1.137  0.00  0.00     0.085 H 
ATOM     19  C6  <0> d           1.903   2.770  -0.964  0.00  0.00    -0.019 A 
ATOM     20  H9  <0> d           3.882   3.633  -1.179  0.00  0.00     0.085 H 
ATOM     21  H8  <0> d           1.398   3.132  -1.847  0.00  0.00     0.111 H 
ENDBRANCH   4  13
ENDBRANCH   1   4
TORSDOF 4
