REMARK  5 active torsions:
REMARK  status: ('A' for Active; 'I' for Inactive)
REMARK    1  A    between atoms: C1_1  and  O1_2 
REMARK    2  A    between atoms: O1_2  and  C2_3 
REMARK    3  A    between atoms: C4_5  and  O3_11 
REMARK    4  A    between atoms: C7_8  and  C8_9 
REMARK    5  A    between atoms: C8_9  and  O2_10 
ROOT
ATOM      1  C2  <0> d           3.100   2.411  -1.212  0.00  0.00     0.079 A 
ATOM      2  C3  <0> d           1.841   1.830  -1.206  0.00  0.00    -0.018 A 
ATOM      3  C4  <0> d           1.223   1.532  -0.001  0.00  0.00     0.068 A 
ATOM      4  C5  <0> d           1.862   1.822   1.196  0.00  0.00    -0.050 A 
ATOM      5  C6  <0> d           3.119   2.396   1.188  0.00  0.00    -0.070 A 
ATOM      6  C7  <0> d           3.738   2.693  -0.012  0.00  0.00    -0.001 A 
ATOM      7  H4  <0> d           1.343   1.609  -2.138  0.00  0.00     0.092 H 
ATOM      8  H5  <0> d           1.379   1.595   2.135  0.00  0.00     0.087 H 
ATOM      9  H6  <0> d           3.618   2.616   2.120  0.00  0.00     0.084 H 
ENDROOT
BRANCH   1  10
ATOM     10  O1  <0> d           3.709   2.703  -2.391  0.00  0.00    -0.355 OA
BRANCH  10  11
ATOM     11  C1  <0> d           2.994   2.384  -3.586  0.00  0.00     0.010 C 
ATOM     12  H1  <0> d           3.591   2.668  -4.453  0.00  0.00     0.066 H 
ATOM     13  H2  <0> d           2.796   1.313  -3.617  0.00  0.00     0.066 H 
ATOM     14  H3  <0> d           2.050   2.929  -3.601  0.00  0.00     0.066 H 
ENDBRANCH  10  11
ENDBRANCH   1  10
BRANCH   6  15
ATOM     15  C8  <0> d           5.106   3.325  -0.017  0.00  0.00     0.043 C 
ATOM     16  H7  <0> d           5.805   2.672  -0.540  0.00  0.00     0.081 H 
ATOM     17  H8  <0> d           5.059   4.288  -0.525  0.00  0.00     0.081 H 
BRANCH  15  18
ATOM     18  O2  <0> d           5.548   3.515   1.328  0.00  0.00    -0.396 OA
ATOM     19  H9  <0> d           6.424   3.919   1.401  0.00  0.00     0.209 HD
ENDBRANCH  15  18
ENDBRANCH   6  15
BRANCH   3  20
ATOM     20  O3  <0> d          -0.011   0.963   0.007  0.00  0.00    -0.361 OA
ATOM     21  H10 <0> d           0.002  -0.004   0.002  0.00  0.00     0.217 HD
ENDBRANCH   3  20
TORSDOF 5
