REMARK  3 active torsions:
REMARK  status: ('A' for Active; 'I' for Inactive)
REMARK    1  A    between atoms: C1_1  and  O1_2 
REMARK    2  A    between atoms: O1_2  and  C2_3 
REMARK    3  A    between atoms: C2_3  and  C8_9 
ROOT
ATOM      1  C8  <0> d           0.002  -0.004   0.002  0.00  0.00    -0.079 C 
ATOM      2  C9  <0> d           0.018  -1.178  -0.004  0.00  0.00    -0.151 C 
ATOM      3  H14 <0> d           0.033  -2.278  -0.010  0.00  0.00     0.166 H 
ENDROOT
BRANCH   1   4
ATOM      4  C2  <0> d          -0.018   1.468   0.010  0.00  0.00     0.122 C 
ATOM      5  C7  <0> d          -0.758   1.975  -1.229  0.00  0.00    -0.025 C 
ATOM      6  C6  <0> d          -2.193   1.445  -1.219  0.00  0.00    -0.061 C 
ATOM      7  H12 <0> d          -0.773   3.075  -1.223  0.00  0.00     0.038 H 
ATOM      8  H13 <0> d          -0.243   1.620  -2.134  0.00  0.00     0.038 H 
ATOM      9  C5  <0> d          -2.909   1.938   0.040  0.00  0.00    -0.065 C 
ATOM     10  H10 <0> d          -2.178   0.345  -1.225  0.00  0.00     0.033 H 
ATOM     11  H11 <0> d          -2.725   1.809  -2.110  0.00  0.00     0.033 H 
ATOM     12  C4  <0> d          -2.169   1.432   1.280  0.00  0.00    -0.061 C 
ATOM     13  H8  <0> d          -3.941   1.558   0.048  0.00  0.00     0.033 H 
ATOM     14  H9  <0> d          -2.924   3.038   0.046  0.00  0.00     0.033 H 
ATOM     15  C3  <0> d          -0.734   1.961   1.269  0.00  0.00    -0.025 C 
ATOM     16  H6  <0> d          -2.155   0.332   1.274  0.00  0.00     0.033 H 
ATOM     17  H7  <0> d          -2.684   1.786   2.185  0.00  0.00     0.033 H 
ATOM     18  H4  <0> d          -0.202   1.597   2.160  0.00  0.00     0.038 H 
ATOM     19  H5  <0> d          -0.749   3.061   1.275  0.00  0.00     0.038 H 
BRANCH   4  20
ATOM     20  O1  <0> d           1.323   1.962  -0.000  0.00  0.00    -0.372 OA
BRANCH  20  21
ATOM     21  C1  <0> d           2.105   1.545   1.121  0.00  0.00     0.006 C 
ATOM     22  H1  <0> d           3.118   1.966   1.038  0.00  0.00     0.066 H 
ATOM     23  H2  <0> d           2.164   0.447   1.138  0.00  0.00     0.066 H 
ATOM     24  H3  <0> d           1.634   1.901   2.049  0.00  0.00     0.066 H 
ENDBRANCH  20  21
ENDBRANCH   4  20
ENDBRANCH   1   4
TORSDOF 3
