REMARK  2 active torsions:
REMARK  status: ('A' for Active; 'I' for Inactive)
REMARK    1  A    between atoms: C1_1  and  C3_8 
REMARK    2  A    between atoms: C2_5  and  N4_7 
ROOT
ATOM      1  C1  <0> d           1.060   1.792   0.002  0.00  0.00     0.240 A 
ATOM      2  N1  <0> d          -0.011   0.966   0.007  0.00  0.00    -0.239 N 
ATOM      3  H1  <0> d           0.135  -0.124   0.004  0.00  0.00     0.191 HD
ATOM      4  N2  <0> d          -1.146   1.793   0.017  0.00  0.00     0.020 NA
ATOM      5  C2  <0> d          -0.714   3.036   0.025  0.00  0.00     0.739 A 
ATOM      6  N3  <0> d           0.616   3.034   0.013  0.00  0.00    -0.035 NA
ENDROOT
BRANCH   1   7
ATOM      7  C3  <0> d           2.477   1.377  -0.015  0.00  0.00     0.249 C 
ATOM      8  O1  <0> d           2.764   0.196  -0.025  0.00  0.00    -0.642 OA
ATOM      9  O2  <0> d           3.451   2.307  -0.019  0.00  0.00    -0.642 OA
ENDBRANCH   1   7
BRANCH   5  10
ATOM     10  N4  <0> d          -1.521   4.174   0.039  0.00  0.00    -0.230 N 
ATOM     11  H2  <0> d          -1.062   5.174   0.045  0.00  0.00     0.174 HD
ATOM     12  H3  <0> d          -2.616   4.071   0.043  0.00  0.00     0.174 HD
ENDBRANCH   5  10
TORSDOF 2
