REMARK  2 active torsions:
REMARK  status: ('A' for Active; 'I' for Inactive)
REMARK    1  A    between atoms: C1_1  and  N1_2 
REMARK    2  A    between atoms: C5_7  and  N5_11 
ROOT
ATOM      1  N1  <0> d          -0.710   3.174   0.026  0.00  0.00    -0.256 N 
ATOM      2  C2  <0> d           0.651   3.244   0.013  0.00  0.00     0.162 A 
ATOM      3  C3  <0> d           1.121   1.916   0.002  0.00  0.00     0.076 A 
ATOM      4  C4  <0> d          -0.013   1.076   0.008  0.00  0.00     0.039 A 
ATOM      5  N2  <0> d          -1.080   1.823   0.017  0.00  0.00    -0.182 NA
ATOM      6  C5  <0> d           2.513   1.702  -0.013  0.00  0.00     0.138 A 
ATOM      7  N3  <0> d           3.315   2.761  -0.015  0.00  0.00    -0.224 NA
ATOM      8  C6  <0> d           2.827   3.989  -0.004  0.00  0.00     0.091 A 
ATOM      9  N4  <0> d           1.536   4.239   0.010  0.00  0.00    -0.222 NA
ATOM     10  H4  <0> d           0.002  -0.004   0.002  0.00  0.00     0.119 H 
ATOM     11  H5  <0> d           3.516   4.821  -0.006  0.00  0.00     0.146 H 
ENDROOT
BRANCH   1  12
ATOM     12  C1  <0> d          -1.629   4.315   0.041  0.00  0.00     0.004 C 
ATOM     13  H1  <0> d          -1.867   4.603  -0.983  0.00  0.00     0.059 H 
ATOM     14  H2  <0> d          -2.545   4.037   0.562  0.00  0.00     0.059 H 
ATOM     15  H3  <0> d          -1.159   5.153   0.555  0.00  0.00     0.059 H 
ENDBRANCH   1  12
BRANCH   6  16
ATOM     16  N5  <0> d           3.032   0.422  -0.024  0.00  0.00    -0.383 N 
ATOM     17  H6  <0> d           2.435  -0.343  -0.022  0.00  0.00     0.157 HD
ATOM     18  H7  <0> d           3.992   0.288  -0.034  0.00  0.00     0.157 HD
ENDBRANCH   6  16
TORSDOF 2
