REMARK  6 active torsions:
REMARK  status: ('A' for Active; 'I' for Inactive)
REMARK    1  A    between atoms: C1_1  and  O1_2 
REMARK    2  A    between atoms: O1_2  and  C2_3 
REMARK    3  A    between atoms: C2_3  and  C3_4 
REMARK    4  A    between atoms: C3_4  and  C4_5 
REMARK    5  A    between atoms: C4_5  and  N1_6 
REMARK    6  A    between atoms: C7_9  and  N3_11 
ROOT
ATOM      1  C4  <0> d           1.309  -2.703  -2.261  0.00  0.00     0.018 C 
ATOM      2  H8  <0> d           0.795  -2.383  -3.168  0.00  0.00     0.067 H 
ATOM      3  H9  <0> d           2.345  -2.367  -2.293  0.00  0.00     0.067 H 
ENDROOT
BRANCH   1   4
ATOM      4  C3  <0> d           0.613  -2.097  -1.041  0.00  0.00    -0.029 C 
ATOM      5  H6  <0> d           1.126  -2.416  -0.134  0.00  0.00     0.038 H 
ATOM      6  H7  <0> d          -0.423  -2.433  -1.010  0.00  0.00     0.038 H 
BRANCH   4   7
ATOM      7  C2  <0> d           0.652  -0.570  -1.138  0.00  0.00     0.020 C 
ATOM      8  H4  <0> d           0.139  -0.251  -2.045  0.00  0.00     0.074 H 
ATOM      9  H5  <0> d           1.688  -0.234  -1.169  0.00  0.00     0.074 H 
BRANCH   7  10
ATOM     10  O1  <0> d           0.002  -0.004   0.002  0.00  0.00    -0.396 OA
BRANCH  10  11
ATOM     11  C1  <0> d          -0.017   1.425   0.010  0.00  0.00     0.004 C 
ATOM     12  H1  <0> d           1.005   1.802   0.002  0.00  0.00     0.066 H 
ATOM     13  H2  <0> d          -0.544   1.786  -0.873  0.00  0.00     0.066 H 
ATOM     14  H3  <0> d          -0.527   1.776   0.907  0.00  0.00     0.066 H 
ENDBRANCH  10  11
ENDBRANCH   7  10
ENDBRANCH   4   7
ENDBRANCH   1   4
BRANCH   1  15
ATOM     15  N1  <0> d           1.272  -4.165  -2.169  0.00  0.00    -0.279 N 
ATOM     16  N2  <0> d           1.740  -4.933  -1.096  0.00  0.00    -0.155 NA
ATOM     17  C7  <0> d           1.533  -6.198  -1.377  0.00  0.00     0.142 A 
ATOM     18  C6  <0> d           0.933  -6.269  -2.644  0.00  0.00    -0.021 A 
ATOM     19  C5  <0> d           0.785  -5.006  -3.105  0.00  0.00     0.002 A 
ATOM     20  H11 <0> d           0.641  -7.172  -3.160  0.00  0.00     0.091 H 
ATOM     21  H10 <0> d           0.354  -4.722  -4.053  0.00  0.00     0.114 H 
BRANCH  17  22
ATOM     22  N3  <0> d           1.859  -7.286  -0.559  0.00  0.00    -0.383 N 
ATOM     23  H12 <0> d           1.669  -8.190  -0.856  0.00  0.00     0.157 HD
ATOM     24  H13 <0> d           2.273  -7.137   0.305  0.00  0.00     0.157 HD
ENDBRANCH  17  22
ENDBRANCH   1  15
TORSDOF 6
