REMARK  5 active torsions:
REMARK  status: ('A' for Active; 'I' for Inactive)
REMARK    1  A    between atoms: C1_1  and  C2_2 
REMARK    2  A    between atoms: C2_2  and  O1_3 
REMARK    3  A    between atoms: O1_3  and  C3_4 
REMARK    4  A    between atoms: C3_4  and  C4_6 
REMARK    5  A    between atoms: C6_11  and  O3_12 
ROOT
ATOM      1  C3  <0> d           0.801  -1.813   1.304  0.00  0.00     0.299 C 
ATOM      2  O2  <0> d           0.321  -2.555   0.470  0.00  0.00    -0.259 OA
ENDROOT
BRANCH   1   3
ATOM      3  O1  <0> d           0.693  -0.477   1.160  0.00  0.00    -0.318 OA
BRANCH   3   4
ATOM      4  C2  <0> d           0.002  -0.004   0.002  0.00  0.00     0.026 C 
ATOM      5  H5  <0> d          -1.020  -0.381   0.010  0.00  0.00     0.074 H 
ATOM      6  H6  <0> d           0.512  -0.356  -0.895  0.00  0.00     0.074 H 
BRANCH   4   7
ATOM      7  C1  <0> d          -0.019   1.526   0.010  0.00  0.00    -0.056 C 
ATOM      8  H2  <0> d           1.004   1.903   0.003  0.00  0.00     0.030 H 
ATOM      9  H3  <0> d          -0.546   1.887  -0.873  0.00  0.00     0.030 H 
ATOM     10  H4  <0> d          -0.529   1.877   0.907  0.00  0.00     0.030 H 
ENDBRANCH   4   7
ENDBRANCH   3   4
ENDBRANCH   1   3
BRANCH   1  11
ATOM     11  C4  <0> d           1.500  -2.372   2.472  0.00  0.00     0.110 A 
ATOM     12  C6  <0> d           1.692  -3.747   2.760  0.00  0.00     0.199 A 
ATOM     13  N2  <0> d           2.359  -3.833   3.882  0.00  0.00    -0.149 NA
ATOM     14  N1  <0> d           2.611  -2.542   4.359  0.00  0.00    -0.286 N 
ATOM     15  C5  <0> d           2.086  -1.657   3.499  0.00  0.00     0.016 A 
ATOM     16  H1  <0> d           3.086  -2.323   5.176  0.00  0.00     0.188 HD
ATOM     17  H7  <0> d           2.117  -0.581   3.591  0.00  0.00     0.115 H 
BRANCH  12  18
ATOM     18  O3  <0> d           1.264  -4.790   2.002  0.00  0.00    -0.343 OA
ATOM     19  H8  <0> d           1.901  -5.079   1.335  0.00  0.00     0.219 HD
ENDBRANCH  12  18
ENDBRANCH   1  11
TORSDOF 5
