REMARK  4 active torsions:
REMARK  status: ('A' for Active; 'I' for Inactive)
REMARK    1  A    between atoms: C1_1  and  C2_2 
REMARK    2  A    between atoms: C2_2  and  C3_3 
REMARK    3  A    between atoms: C3_3  and  N1_4 
REMARK    4  A    between atoms: N1_4  and  C4_5 
ROOT
ATOM      1  C3  <0> d           1.248   1.716  -0.001  0.00  0.00    -0.006 C 
ATOM      2  H6  <0> d           1.306   2.344   0.900  0.00  0.00     0.064 H 
ATOM      3  H7  <0> d           1.289   2.353  -0.896  0.00  0.00     0.064 H 
ENDROOT
BRANCH   1   4
ATOM      4  C2  <0> d           2.424   0.737  -0.017  0.00  0.00    -0.054 C 
ATOM      5  H4  <0> d           2.366   0.109  -0.918  0.00  0.00     0.034 H 
ATOM      6  H5  <0> d           2.383   0.099   0.878  0.00  0.00     0.034 H 
BRANCH   4   7
ATOM      7  C1  <0> d           3.738   1.520  -0.025  0.00  0.00    -0.075 C 
ATOM      8  H1  <0> d           4.584   0.817  -0.037  0.00  0.00     0.027 H 
ATOM      9  H2  <0> d           3.796   2.148   0.875  0.00  0.00     0.027 H 
ATOM     10  H3  <0> d           3.779   2.158  -0.921  0.00  0.00     0.027 H 
ENDBRANCH   4   7
ENDBRANCH   1   4
BRANCH   1  11
ATOM     11  N1  <0> d          -0.011   0.966   0.007  0.00  0.00    -0.366 N 
ATOM     12  H8  <0> d           0.004  -0.134   0.006  0.00  0.00     0.161 HD
BRANCH  11  13
ATOM     13  C4  <0> d          -1.219   1.641   0.017  0.00  0.00     0.209 A 
ATOM     14  S1  <0> d          -2.839   1.016   0.021  0.00  0.00     0.076 SA
ATOM     15  N4  <0> d          -3.651   2.526   0.033  0.00  0.00    -0.087 NA
ATOM     16  N3  <0> d          -2.655   3.356   0.033  0.00  0.00    -0.033 NA
ATOM     17  N2  <0> d          -1.459   2.947   0.031  0.00  0.00    -0.103 NA
ENDBRANCH  11  13
ENDBRANCH   1  11
TORSDOF 4
