REMARK  3 active torsions:
REMARK  status: ('A' for Active; 'I' for Inactive)
REMARK    1  A    between atoms: C2_2  and  N1_9 
REMARK    2  A    between atoms: C4_4  and  O2_8 
REMARK    3  A    between atoms: C6_6  and  O1_7 
ROOT
ATOM      1  C1  <0> d           2.404   0.026  -0.020  0.00  0.00    -0.026 A 
ATOM      2  C2  <0> d           2.386   1.415  -0.013  0.00  0.00     0.030 A 
ATOM      3  C3  <0> d           1.174   2.093   0.002  0.00  0.00    -0.026 A 
ATOM      4  C4  <0> d          -0.017   1.383   0.010  0.00  0.00     0.070 A 
ATOM      5  C5  <0> d           0.002  -0.004   0.002  0.00  0.00    -0.019 A 
ATOM      6  C6  <0> d           1.212  -0.682  -0.013  0.00  0.00     0.070 A 
ATOM      7  H1  <0> d           3.346  -0.502  -0.032  0.00  0.00     0.091 H 
ATOM      8  H2  <0> d           1.159   3.172   0.008  0.00  0.00     0.091 H 
ATOM      9  H3  <0> d          -0.926  -0.556   0.008  0.00  0.00     0.092 H 
ENDROOT
BRANCH   2  10
ATOM     10  N1  <0> d           3.586   2.129  -0.021  0.00  0.00    -0.399 N 
ATOM     11  H6  <0> d           4.432   1.655  -0.032  0.00  0.00     0.156 HD
ATOM     12  H7  <0> d           3.573   3.099  -0.016  0.00  0.00     0.156 HD
ENDBRANCH   2  10
BRANCH   6  13
ATOM     13  O1  <0> d           1.229  -2.041  -0.019  0.00  0.00    -0.361 OA
ATOM     14  H4  <0> d           1.226  -2.430  -0.905  0.00  0.00     0.217 HD
ENDBRANCH   6  13
BRANCH   4  15
ATOM     15  O2  <0> d          -1.203   2.046   0.019  0.00  0.00    -0.361 OA
ATOM     16  H5  <0> d          -1.542   2.233   0.905  0.00  0.00     0.217 HD
ENDBRANCH   4  15
TORSDOF 3
