REMARK  1 active torsions:
REMARK  status: ('A' for Active; 'I' for Inactive)
REMARK    1  A    between atoms: C5_5  and  N1_7 
ROOT
ATOM      1  C1  <0> d           0.439   4.249   0.020  0.00  0.00    -0.080 A 
ATOM      2  C2  <0> d           1.507   3.378   0.005  0.00  0.00    -0.069 A 
ATOM      3  C3  <0> d           1.288   1.992   0.001  0.00  0.00     0.018 A 
ATOM      4  C4  <0> d          -0.018   1.506   0.010  0.00  0.00    -0.018 A 
ATOM      5  C5  <0> d          -1.086   2.393   0.030  0.00  0.00     0.033 A 
ATOM      6  C6  <0> d          -0.856   3.763   0.030  0.00  0.00    -0.057 A 
ATOM      7  C7  <0> d           0.002  -0.004   0.002  0.00  0.00    -0.031 A 
ATOM      8  C8  <0> d           1.481  -0.415  -0.014  0.00  0.00    -0.001 A 
ATOM      9  C9  <0> d           2.255   0.881  -0.015  0.00  0.00     0.160 A 
ATOM     10  O1  <0> d           3.463   0.989  -0.025  0.00  0.00    -0.292 OA
ATOM     11  H1  <0> d           0.614   5.314   0.024  0.00  0.00     0.083 H 
ATOM     12  H2  <0> d           2.515   3.764  -0.002  0.00  0.00     0.085 H 
ATOM     13  H3  <0> d          -1.689   4.450   0.041  0.00  0.00     0.086 H 
ATOM     14  H6  <0> d          -0.503  -0.383   0.903  0.00  0.00     0.040 H 
ATOM     15  H7  <0> d          -0.520  -0.373  -0.893  0.00  0.00     0.040 H 
ATOM     16  H8  <0> d           1.704  -1.018   0.878  0.00  0.00     0.045 H 
ATOM     17  H9  <0> d           1.687  -1.008  -0.918  0.00  0.00     0.045 H 
ENDROOT
BRANCH   5  18
ATOM     18  N1  <0> d          -2.396   1.907   0.046  0.00  0.00    -0.399 N 
ATOM     19  H4  <0> d          -3.243   2.609   0.062  0.00  0.00     0.156 HD
ATOM     20  H5  <0> d          -2.580   0.823   0.043  0.00  0.00     0.156 HD
ENDBRANCH   5  18
TORSDOF 1
