REMARK  3 active torsions:
REMARK  status: ('A' for Active; 'I' for Inactive)
REMARK    1  A    between atoms: C1_1  and  C2_2 
REMARK    2  A    between atoms: C2_2  and  C3_3 
REMARK    3  A    between atoms: C4_4  and  C11_13 
ROOT
ATOM      1  C3  <0> d          -1.702   5.341   0.045  0.00  0.00     0.016 A 
ATOM      2  C4  <0> d          -2.295   4.137   0.045  0.00  0.00    -0.027 A 
ATOM      3  C5  <0> d          -1.228   3.133   0.030  0.00  0.00    -0.002 A 
ATOM      4  C6  <0> d          -1.208   1.737   0.017  0.00  0.00    -0.070 A 
ATOM      5  C7  <0> d          -0.013   1.076   0.008  0.00  0.00    -0.082 A 
ATOM      6  C8  <0> d           1.183   1.781   0.000  0.00  0.00    -0.081 A 
ATOM      7  C9  <0> d           1.187   3.158   0.007  0.00  0.00    -0.056 A 
ATOM      8  C10 <0> d          -0.018   3.852   0.021  0.00  0.00     0.043 A 
ATOM      9  N1  <0> d          -0.342   5.191   0.031  0.00  0.00    -0.358 N 
ATOM     10  H1  <0> d           0.299   5.919   0.029  0.00  0.00     0.166 HD
ATOM     11  H7  <0> d          -2.134   1.182   0.019  0.00  0.00     0.084 H 
ATOM     12  H8  <0> d           0.002  -0.004   0.002  0.00  0.00     0.083 H 
ATOM     13  H9  <0> d           2.120   1.244  -0.011  0.00  0.00     0.083 H 
ATOM     14  H10 <0> d           2.123   3.698   0.001  0.00  0.00     0.086 H 
ENDROOT
BRANCH   1  15
ATOM     15  C2  <0> d          -2.426   6.662   0.059  0.00  0.00    -0.030 C 
ATOM     16  H5  <0> d          -1.789   7.431  -0.377  0.00  0.00     0.041 H 
ATOM     17  H6  <0> d          -3.345   6.579  -0.521  0.00  0.00     0.041 H 
BRANCH  15  18
ATOM     18  C1  <0> d          -2.767   7.041   1.502  0.00  0.00    -0.071 C 
ATOM     19  H2  <0> d          -3.405   6.273   1.939  0.00  0.00     0.028 H 
ATOM     20  H3  <0> d          -1.849   7.125   2.083  0.00  0.00     0.028 H 
ATOM     21  H4  <0> d          -3.291   7.997   1.512  0.00  0.00     0.028 H 
ENDBRANCH  15  18
ENDBRANCH   1  15
BRANCH   2  22
ATOM     22  C11 <0> d          -3.778   3.868   0.059  0.00  0.00    -0.049 C 
ATOM     23  H11 <0> d          -4.146   3.808  -0.965  0.00  0.00     0.033 H 
ATOM     24  H12 <0> d          -3.971   2.925   0.570  0.00  0.00     0.033 H 
ATOM     25  H13 <0> d          -4.289   4.676   0.582  0.00  0.00     0.033 H 
ENDBRANCH   2  22
TORSDOF 3
