REMARK  1 active torsions:
REMARK  status: ('A' for Active; 'I' for Inactive)
REMARK    1  A    between atoms: C2_2  and  C3_3 
ROOT
ATOM      1  C1  <0> d           0.018  -1.178  -0.004  0.00  0.00    -0.154 C 
ATOM      2  C2  <0> d           0.002  -0.004   0.002  0.00  0.00    -0.113 C 
ATOM      3  H1  <0> d           0.032  -2.228  -0.010  0.00  0.00     0.166 H 
ENDROOT
BRANCH   2   4
ATOM      4  C3  <0> d          -0.018   1.468   0.010  0.00  0.00     0.005 C 
ATOM      5  C7  <0> d           1.420   2.014  -0.001  0.00  0.00    -0.052 C 
ATOM      6  C6  <0> d           1.563   2.854  -1.287  0.00  0.00    -0.064 C 
ATOM      7  H9  <0> d           1.588   2.642   0.875  0.00  0.00     0.034 H 
ATOM      8  H10 <0> d           2.133   1.190  -0.012  0.00  0.00     0.034 H 
ATOM      9  C5  <0> d           0.111   3.262  -1.637  0.00  0.00    -0.064 C 
ATOM     10  H7  <0> d           1.994   2.254  -2.088  0.00  0.00     0.033 H 
ATOM     11  H8  <0> d           2.173   3.738  -1.100  0.00  0.00     0.033 H 
ATOM     12  C4  <0> d          -0.699   1.994  -1.270  0.00  0.00    -0.052 C 
ATOM     13  H5  <0> d           0.018   3.486  -2.700  0.00  0.00     0.033 H 
ATOM     14  H6  <0> d          -0.208   4.112  -1.033  0.00  0.00     0.033 H 
ATOM     15  H3  <0> d          -0.633   1.255  -2.069  0.00  0.00     0.034 H 
ATOM     16  H4  <0> d          -1.740   2.250  -1.071  0.00  0.00     0.034 H 
ATOM     17  H2  <0> d          -0.548   1.829   0.891  0.00  0.00     0.059 H 
ENDBRANCH   2   4
TORSDOF 1
