REMARK  1 active torsions:
REMARK  status: ('A' for Active; 'I' for Inactive)
REMARK    1  A    between atoms: C1_1  and  C2_2 
ROOT
ATOM      1  C2  <0> d          -0.742   1.585  -1.213  0.00  0.00     0.009 A 
ATOM      2  H1  <0> d          -3.706   2.419  -2.280  0.00  0.00     0.192 HD
ATOM      3  C3  <0> d          -0.076   1.830  -2.381  0.00  0.00    -0.053 A 
ATOM      4  C4  <0> d          -0.814   2.295  -3.482  0.00  0.00     0.022 A 
ATOM      5  N1  <0> d          -2.100   2.484  -3.385  0.00  0.00    -0.184 NA
ATOM      6  N2  <0> d          -2.749   2.261  -2.299  0.00  0.00    -0.243 N 
ATOM      7  C5  <0> d          -2.135   1.809  -1.189  0.00  0.00     0.267 A 
ATOM      8  O1  <0> d          -2.776   1.600  -0.172  0.00  0.00    -0.266 OA
ATOM      9  H5  <0> d           0.989   1.672  -2.454  0.00  0.00     0.086 H 
ATOM     10  H6  <0> d          -0.311   2.496  -4.417  0.00  0.00     0.117 H 
ENDROOT
BRANCH   1  11
ATOM     11  C1  <0> d          -0.013   1.086   0.008  0.00  0.00    -0.046 C 
ATOM     12  H2  <0> d           0.002  -0.004   0.002  0.00  0.00     0.033 H 
ATOM     13  H3  <0> d           1.010   1.463   0.000  0.00  0.00     0.033 H 
ATOM     14  H4  <0> d          -0.523   1.437   0.905  0.00  0.00     0.033 H 
ENDBRANCH   1  11
TORSDOF 1
