REMARK  2 active torsions:
REMARK  status: ('A' for Active; 'I' for Inactive)
REMARK    1  A    between atoms: C1_1  and  C2_2 
REMARK    2  A    between atoms: C4_5  and  C5_7 
ROOT
ATOM      1  C2  <0> d           1.317   0.779  -0.006  0.00  0.00    -0.048 A 
ATOM      2  H1  <0> d           1.889   0.792  -0.934  0.00  0.00     0.040 H 
ATOM      3  C3  <0> d           0.002  -0.004   0.002  0.00  0.00    -0.052 A 
ATOM      4  C4  <0> d          -0.019   1.526   0.010  0.00  0.00    -0.004 A 
ATOM      5  H2  <0> d          -0.307   2.020   0.938  0.00  0.00     0.051 H 
ATOM      6  H6  <0> d          -0.273  -0.516   0.924  0.00  0.00     0.034 H 
ATOM      7  H7  <0> d          -0.291  -0.506  -0.920  0.00  0.00     0.034 H 
ENDROOT
BRANCH   4   8
ATOM      8  C5  <0> d          -0.442   2.223  -1.257  0.00  0.00     0.057 A 
ATOM      9  O1  <0> d          -0.649   1.634  -2.446  0.00  0.00    -0.327 OA
ATOM     10  C8  <0> d          -1.016   2.560  -3.347  0.00  0.00     0.019 A 
ATOM     11  C7  <0> d          -1.047   3.758  -2.736  0.00  0.00    -0.059 A 
ATOM     12  H10 <0> d          -1.247   2.374  -4.385  0.00  0.00     0.123 H 
ATOM     13  C6  <0> d          -0.682   3.540  -1.387  0.00  0.00    -0.052 A 
ATOM     14  H9  <0> d          -1.306   4.704  -3.188  0.00  0.00     0.086 H 
ATOM     15  H8  <0> d          -0.608   4.288  -0.612  0.00  0.00     0.087 H 
ENDBRANCH   4   8
BRANCH   1  16
ATOM     16  C1  <0> d           2.144   0.783   1.280  0.00  0.00    -0.072 C 
ATOM     17  H3  <0> d           1.569   0.325   2.084  0.00  0.00     0.028 H 
ATOM     18  H4  <0> d           3.063   0.217   1.123  0.00  0.00     0.028 H 
ATOM     19  H5  <0> d           2.392   1.810   1.550  0.00  0.00     0.028 H 
ENDBRANCH   1  16
TORSDOF 2
