REMARK  1 active torsions:
REMARK  status: ('A' for Active; 'I' for Inactive)
REMARK    1  A    between atoms: C6_8  and  C8_10 
ROOT
ATOM      1  C1  <0> d          -0.019   1.531   0.011  0.00  0.00    -0.061 C 
ATOM      2  C2  <0> d           1.518   1.473  -0.004  0.00  0.00    -0.061 C 
ATOM      3  C3  <0> d           1.395   0.091   0.664  0.00  0.00    -0.050 C 
ATOM      4  H1  <0> d           2.130  -0.653   0.356  0.00  0.00     0.040 H 
ATOM      5  C4  <0> d           0.002  -0.004   0.002  0.00  0.00    -0.050 C 
ATOM      6  H2  <0> d          -0.030  -0.470  -0.983  0.00  0.00     0.040 H 
ATOM      7  C5  <0> d          -0.903  -0.652   1.062  0.00  0.00    -0.049 C 
ATOM      8  C6  <0> d          -0.305  -0.275   2.425  0.00  0.00     0.031 C 
ATOM      9  C7  <0> d           1.163   0.181   2.181  0.00  0.00    -0.049 C 
ATOM     10  H3  <0> d          -0.431   1.957   0.925  0.00  0.00     0.033 H 
ATOM     11  H4  <0> d          -0.448   1.966  -0.892  0.00  0.00     0.033 H 
ATOM     12  H5  <0> d           1.944   1.436  -1.007  0.00  0.00     0.033 H 
ATOM     13  H6  <0> d           1.989   2.224   0.629  0.00  0.00     0.033 H 
ATOM     14  H7  <0> d          -1.918  -0.262   0.977  0.00  0.00     0.034 H 
ATOM     15  H8  <0> d          -0.906  -1.735   0.941  0.00  0.00     0.034 H 
ATOM     16  H9  <0> d          -0.879   0.538   2.870  0.00  0.00     0.056 H 
ATOM     17  H10 <0> d           1.857  -0.478   2.702  0.00  0.00     0.034 H 
ATOM     18  H11 <0> d           1.302   1.208   2.517  0.00  0.00     0.034 H 
ENDROOT
BRANCH   8  19
ATOM     19  C8  <0> d          -0.315  -1.473   3.338  0.00  0.00     0.177 C 
ATOM     20  O1  <0> d           0.542  -1.592   4.198  0.00  0.00    -0.648 OA
ATOM     21  O2  <0> d          -1.180  -2.324   3.218  0.00  0.00    -0.648 OA
ENDBRANCH   8  19
TORSDOF 1
