REMARK  2 active torsions:
REMARK  status: ('A' for Active; 'I' for Inactive)
REMARK    1  A    between atoms: C1_1  and  C2_2 
REMARK    2  A    between atoms: C4_4  and  N2_7 
ROOT
ATOM      1  C2  <0> d          -0.718   1.572   1.248  0.00  0.00     0.100 A 
ATOM      2  C3  <0> d          -0.928   2.859   1.606  0.00  0.00     0.113 A 
ATOM      3  C4  <0> d          -1.629   2.761   2.839  0.00  0.00     0.173 A 
ATOM      4  N1  <0> d          -1.755   1.484   3.087  0.00  0.00    -0.109 NA
ATOM      5  O1  <0> d          -1.256   0.812   2.214  0.00  0.00    -0.215 OA
ATOM      6 Cl1  <0> d          -0.453   4.297   0.757  0.00  0.00    -0.077 Cl
ENDROOT
BRANCH   1   7
ATOM      7  C1  <0> d          -0.013   1.086   0.008  0.00  0.00    -0.028 C 
ATOM      8  H1  <0> d           0.315   1.949  -0.590  0.00  0.00     0.036 H 
ATOM      9  H2  <0> d          -0.701   0.468  -0.587  0.00  0.00     0.036 H 
ATOM     10  H3  <0> d           0.863   0.485   0.296  0.00  0.00     0.036 H 
ENDBRANCH   1   7
BRANCH   3  11
ATOM     11  N2  <0> d          -2.085   3.814   3.626  0.00  0.00    -0.381 N 
ATOM     12  H4  <0> d          -2.619   3.607   4.566  0.00  0.00     0.157 HD
ATOM     13  H5  <0> d          -1.912   4.853   3.310  0.00  0.00     0.157 HD
ENDBRANCH   3  11
TORSDOF 2
