REMARK  3 active torsions:
REMARK  status: ('A' for Active; 'I' for Inactive)
REMARK    1  A    between atoms: C1_1  and  C2_2 
REMARK    2  A    between atoms: C2_2  and  N1_3 
REMARK    3  A    between atoms: C3_4  and  C6_9 
ROOT
ATOM      1  N1  <0> d           0.688  -0.476  -1.203  0.00  0.00    -0.273 N 
ATOM      2  C3  <0> d           0.110  -0.738  -2.396  0.00  0.00     0.050 A 
ATOM      3  C4  <0> d           1.081  -1.150  -3.243  0.00  0.00     0.077 A 
ATOM      4  C5  <0> d           2.294  -1.140  -2.545  0.00  0.00     0.045 A 
ATOM      5  N2  <0> d           2.060  -0.732  -1.324  0.00  0.00    -0.183 NA
ATOM      6 Cl1  <0> d           0.861  -1.609  -4.903  0.00  0.00    -0.081 Cl
ATOM      7  H6  <0> d           3.258  -1.418  -2.946  0.00  0.00     0.120 H 
ENDROOT
BRANCH   1   8
ATOM      8  C2  <0> d           0.002  -0.004   0.002  0.00  0.00     0.014 C 
ATOM      9  H4  <0> d           0.529  -0.365   0.885  0.00  0.00     0.066 H 
ATOM     10  H5  <0> d          -1.020  -0.381   0.010  0.00  0.00     0.066 H 
BRANCH   8  11
ATOM     11  C1  <0> d          -0.019   1.526   0.010  0.00  0.00    -0.059 C 
ATOM     12  H1  <0> d           1.004   1.903   0.003  0.00  0.00     0.029 H 
ATOM     13  H2  <0> d          -0.546   1.887  -0.873  0.00  0.00     0.029 H 
ATOM     14  H3  <0> d          -0.529   1.877   0.907  0.00  0.00     0.029 H 
ENDBRANCH   8  11
ENDBRANCH   1   8
BRANCH   2  15
ATOM     15  C6  <0> d          -1.355  -0.596  -2.723  0.00  0.00    -0.034 C 
ATOM     16  H7  <0> d          -1.549   0.411  -3.092  0.00  0.00     0.035 H 
ATOM     17  H8  <0> d          -1.627  -1.323  -3.489  0.00  0.00     0.035 H 
ATOM     18  H9  <0> d          -1.946  -0.775  -1.825  0.00  0.00     0.035 H 
ENDBRANCH   2  15
TORSDOF 3
