REMARK  2 active torsions:
REMARK  status: ('A' for Active; 'I' for Inactive)
REMARK    1  A    between atoms: C1_1  and  C2_2 
REMARK    2  A    between atoms: C2_2  and  C3_3 
ROOT
ATOM      1  C3  <0> d          -0.718   1.572   1.248  0.00  0.00     0.122 A 
ATOM      2  C4  <0> d          -0.209   1.224   2.578  0.00  0.00     0.275 A 
ATOM      3  O1  <0> d           0.790   0.538   2.695  0.00  0.00    -0.266 OA
ATOM      4  N1  <0> d          -0.861   1.673   3.670  0.00  0.00    -0.273 N 
ATOM      5  H1  <0> d          -0.490   1.420   4.674  0.00  0.00     0.173 HD
ATOM      6  C5  <0> d          -1.964   2.431   3.531  0.00  0.00     0.343 A 
ATOM      7  O2  <0> d          -2.545   2.831   4.522  0.00  0.00    -0.245 OA
ATOM      8  N2  <0> d          -2.435   2.753   2.313  0.00  0.00    -0.228 N 
ATOM      9  H2  <0> d          -3.341   3.370   2.219  0.00  0.00     0.194 HD
ATOM     10  N3  <0> d          -1.787   2.313   1.153  0.00  0.00    -0.170 NA
ENDROOT
BRANCH   1  11
ATOM     11  C2  <0> d          -0.013   1.086   0.008  0.00  0.00    -0.021 C 
ATOM     12  H6  <0> d           0.002  -0.014   0.002  0.00  0.00     0.042 H 
ATOM     13  H7  <0> d           1.019   1.466   0.000  0.00  0.00     0.042 H 
BRANCH  11  14
ATOM     14  C1  <0> d          -0.753   1.593  -1.232  0.00  0.00    -0.071 C 
ATOM     15  H3  <0> d          -0.238   1.238  -2.136  0.00  0.00     0.028 H 
ATOM     16  H4  <0> d          -0.768   2.693  -1.225  0.00  0.00     0.028 H 
ATOM     17  H5  <0> d          -1.785   1.212  -1.224  0.00  0.00     0.028 H 
ENDBRANCH  11  14
ENDBRANCH   1  11
TORSDOF 2
