REMARK  3 active torsions:
REMARK  status: ('A' for Active; 'I' for Inactive)
REMARK    1  A    between atoms: C1_1  and  C2_2 
REMARK    2  A    between atoms: C2_2  and  C3_3 
REMARK    3  A    between atoms: C5_5  and  C7_9 
ROOT
ATOM      1  C3  <0> d           0.661   3.187   0.012  0.00  0.00     0.009 A 
ATOM      2  C4  <0> d          -0.687   3.194   0.025  0.00  0.00    -0.054 A 
ATOM      3  C5  <0> d          -1.116   1.851   0.017  0.00  0.00    -0.045 A 
ATOM      4  C6  <0> d          -0.013   1.076   0.008  0.00  0.00    -0.017 A 
ATOM      5  N1  <0> d           1.081   1.890   0.002  0.00  0.00    -0.369 N 
ATOM      6  H1  <0> d           2.157   1.660  -0.009  0.00  0.00     0.165 HD
ATOM      7  H7  <0> d          -1.322   4.067   0.036  0.00  0.00     0.087 H 
ATOM      8  H8  <0> d           0.002  -0.004   0.002  0.00  0.00     0.112 H 
ENDROOT
BRANCH   1   9
ATOM      9  C2  <0> d           1.550   4.404   0.011  0.00  0.00    -0.030 C 
ATOM     10  H5  <0> d           2.530   4.143   0.439  0.00  0.00     0.041 H 
ATOM     11  H6  <0> d           1.086   5.198   0.615  0.00  0.00     0.041 H 
BRANCH   9  12
ATOM     12  C1  <0> d           1.737   4.898  -1.425  0.00  0.00    -0.071 C 
ATOM     13  H2  <0> d           2.386   5.786  -1.426  0.00  0.00     0.028 H 
ATOM     14  H3  <0> d           0.758   5.159  -1.853  0.00  0.00     0.028 H 
ATOM     15  H4  <0> d           2.201   4.104  -2.029  0.00  0.00     0.028 H 
ENDBRANCH   9  12
ENDBRANCH   1   9
BRANCH   3  16
ATOM     16  C7  <0> d          -2.544   1.371   0.021  0.00  0.00    -0.050 C 
ATOM     17  H9  <0> d          -2.561   0.271   0.012  0.00  0.00     0.033 H 
ATOM     18  H10 <0> d          -3.062   1.752  -0.872  0.00  0.00     0.033 H 
ATOM     19  H11 <0> d          -3.052   1.738   0.924  0.00  0.00     0.033 H 
ENDBRANCH   3  16
TORSDOF 3
