REMARK  7 active torsions:
REMARK  status: ('A' for Active; 'I' for Inactive)
REMARK    1  A    between atoms: C1_1  and  C2_2 
REMARK    2  A    between atoms: C2_2  and  C3_3 
REMARK    3  A    between atoms: C2_2  and  C4_4 
REMARK    4  A    between atoms: C4_4  and  C5_5 
REMARK    5  A    between atoms: C5_5  and  C6_6 
REMARK    6  A    between atoms: C5_5  and  C7_7 
REMARK    7  A    between atoms: C5_5  and  O1_8 
ROOT
ATOM      1  C4  <0> d           1.526   1.928   0.001  0.00  0.00    -0.034 C 
ATOM      2  H8  <0> d           1.627   3.004   0.146  0.00  0.00     0.037 H 
ATOM      3  H9  <0> d           2.054   1.403   0.797  0.00  0.00     0.037 H 
ENDROOT
BRANCH   1   4
ATOM      4  C2  <0> d           2.125   1.537  -1.352  0.00  0.00    -0.059 C 
ATOM      5  H4  <0> d           1.526   1.971  -2.153  0.00  0.00     0.039 H 
BRANCH   4   6
ATOM      6  C1  <0> d           3.559   2.062  -1.446  0.00  0.00    -0.073 C 
ATOM      7  H1  <0> d           3.548   3.152  -1.438  0.00  0.00     0.028 H 
ATOM      8  H2  <0> d           4.135   1.698  -0.595  0.00  0.00     0.028 H 
ATOM      9  H3  <0> d           4.015   1.710  -2.371  0.00  0.00     0.028 H 
ENDBRANCH   4   6
BRANCH   4  10
ATOM     10  C3  <0> d           2.129   0.013  -1.486  0.00  0.00    -0.073 C 
ATOM     11  H5  <0> d           1.104  -0.347  -1.569  0.00  0.00     0.028 H 
ATOM     12  H6  <0> d           2.687  -0.271  -2.379  0.00  0.00     0.028 H 
ATOM     13  H7  <0> d           2.600  -0.428  -0.608  0.00  0.00     0.028 H 
ENDBRANCH   4  10
ENDBRANCH   1   4
BRANCH   1  14
ATOM     14  C5  <0> d           0.045   1.546   0.033  0.00  0.00     0.051 C 
BRANCH  14  15
ATOM     15  C6  <0> d          -0.667   2.164  -1.172  0.00  0.00    -0.048 C 
ATOM     16  H10 <0> d          -1.739   1.983  -1.092  0.00  0.00     0.031 H 
ATOM     17  H11 <0> d          -0.481   3.238  -1.193  0.00  0.00     0.031 H 
ATOM     18  H12 <0> d          -0.290   1.712  -2.089  0.00  0.00     0.031 H 
ENDBRANCH  14  15
BRANCH  14  19
ATOM     19  C7  <0> d          -0.589   2.068   1.324  0.00  0.00    -0.048 C 
ATOM     20  H13 <0> d          -0.082   1.628   2.182  0.00  0.00     0.031 H 
ATOM     21  H14 <0> d          -0.493   3.154   1.362  0.00  0.00     0.031 H 
ATOM     22  H15 <0> d          -1.644   1.796   1.346  0.00  0.00     0.031 H 
ENDBRANCH  14  19
BRANCH  14  23
ATOM     23  O1  <0> d          -0.081   0.123  -0.018  0.00  0.00    -0.391 OA
ATOM     24  H16 <0> d           0.348  -0.336   0.717  0.00  0.00     0.210 HD
ENDBRANCH  14  23
ENDBRANCH   1  14
TORSDOF 7
