REMARK  1 active torsions:
REMARK  status: ('A' for Active; 'I' for Inactive)
REMARK    1  A    between atoms: C7_7  and  O1_10 
ROOT
ATOM      1  C1  <0> d           2.443   3.818  -0.207  0.00  0.00    -0.062 C 
ATOM      2  C2  <0> d           3.293   3.253  -1.334  0.00  0.00    -0.061 C 
ATOM      3  C3  <0> d           3.414   1.737  -1.277  0.00  0.00    -0.051 C 
ATOM      4  C4  <0> d           4.217   1.280  -0.068  0.00  0.00    -0.061 C 
ATOM      5  C5  <0> d           3.504   1.540   1.249  0.00  0.00    -0.062 C 
ATOM      6  C6  <0> d           2.048   1.106   1.239  0.00  0.00    -0.036 C 
ATOM      7  C7  <0> d           1.295   1.566  -0.002  0.00  0.00     0.058 C 
ATOM      8  C8  <0> d           1.127   3.079  -0.029  0.00  0.00    -0.036 C 
ATOM      9  C9  <0> d           2.027   1.098  -1.261  0.00  0.00    -0.033 C 
ATOM     10  H1  <0> d           3.002   3.853   0.723  0.00  0.00     0.033 H 
ATOM     11  H2  <0> d           2.208   4.871  -0.458  0.00  0.00     0.033 H 
ATOM     12  H3  <0> d           4.296   3.696  -1.286  0.00  0.00     0.033 H 
ATOM     13  H4  <0> d           2.852   3.542  -2.297  0.00  0.00     0.033 H 
ATOM     14  H5  <0> d           3.934   1.397  -2.187  0.00  0.00     0.040 H 
ATOM     15  H6  <0> d           5.184   1.799  -0.062  0.00  0.00     0.033 H 
ATOM     16  H7  <0> d           4.422   0.205  -0.160  0.00  0.00     0.033 H 
ATOM     17  H8  <0> d           3.599   2.581   1.546  0.00  0.00     0.033 H 
ATOM     18  H9  <0> d           4.024   0.955   2.034  0.00  0.00     0.033 H 
ATOM     19  H10 <0> d           1.546   1.507   2.129  0.00  0.00     0.037 H 
ATOM     20  H11 <0> d           1.997   0.011   1.301  0.00  0.00     0.037 H 
ATOM     21  H12 <0> d           0.449   3.348  -0.848  0.00  0.00     0.037 H 
ATOM     22  H13 <0> d           0.656   3.403   0.908  0.00  0.00     0.037 H 
ATOM     23  H14 <0> d           2.122   0.013  -1.247  0.00  0.00     0.037 H 
ATOM     24  H15 <0> d           1.469   1.407  -2.144  0.00  0.00     0.037 H 
ENDROOT
BRANCH   7  25
ATOM     25  O1  <0> d          -0.011   0.963   0.007  0.00  0.00    -0.390 OA
ATOM     26  H16 <0> d           0.002  -0.004   0.002  0.00  0.00     0.210 HD
ENDBRANCH   7  25
TORSDOF 1
