REMARK  0 active torsions:
REMARK  status: ('A' for Active; 'I' for Inactive)
ROOT
ATOM      1  C1  <0> d           1.162   2.025   0.002  0.00  0.00    -0.003 A 
ATOM      2  C2  <0> d           2.337   1.347  -0.013  0.00  0.00     0.017 A 
ATOM      3  N1  <0> d           2.360   0.017  -0.020  0.00  0.00    -0.266 NA
ATOM      4  C3  <0> d           1.247  -0.674  -0.013  0.00  0.00     0.067 A 
ATOM      5  C4  <0> d           0.002  -0.004   0.002  0.00  0.00     0.262 A 
ATOM      6  O1  <0> d          -1.041  -0.637   0.009  0.00  0.00    -0.267 OA
ATOM      7  N2  <0> d          -0.016   1.346   0.009  0.00  0.00    -0.331 N 
ATOM      8  H1  <0> d          -0.968   1.897   0.021  0.00  0.00     0.168 HD
ATOM      9  H2  <0> d           1.162   3.104   0.007  0.00  0.00     0.113 H 
ATOM     10  H3  <0> d           3.267   1.896  -0.019  0.00  0.00     0.116 H 
ATOM     11  H4  <0> d           1.280  -1.754  -0.019  0.00  0.00     0.123 H 
ENDROOT
TORSDOF 0
