REMARK  2 active torsions:
REMARK  status: ('A' for Active; 'I' for Inactive)
REMARK    1  A    between atoms: C1_1  and  N1_2 
REMARK    2  A    between atoms: N1_2  and  C2_3 
ROOT
ATOM      1  C2  <0> d           1.216  -0.685  -0.013  0.00  0.00     0.027 A 
ATOM      2  C3  <0> d           0.002  -0.004   0.002  0.00  0.00    -0.056 A 
ATOM      3  C4  <0> d          -0.017   1.372   0.010  0.00  0.00    -0.061 A 
ATOM      4  C5  <0> d           1.185   2.086   0.002  0.00  0.00     0.044 A 
ATOM      5  C6  <0> d           2.403   1.399  -0.013  0.00  0.00    -0.061 A 
ATOM      6  C7  <0> d           2.414   0.022  -0.020  0.00  0.00    -0.056 A 
ATOM      7  C8  <0> d           1.170   3.518   0.010  0.00  0.00     0.099 C 
ATOM      8  N2  <0> d           1.157   4.654   0.016  0.00  0.00    -0.191 NA
ATOM      9  H5  <0> d          -0.926  -0.556   0.008  0.00  0.00     0.087 H 
ATOM     10  H6  <0> d          -0.959   1.900   0.017  0.00  0.00     0.085 H 
ATOM     11  H7  <0> d           3.333   1.947  -0.019  0.00  0.00     0.085 H 
ATOM     12  H8  <0> d           3.354  -0.509  -0.031  0.00  0.00     0.087 H 
ENDROOT
BRANCH   1  13
ATOM     13  N1  <0> d           1.231  -2.077  -0.020  0.00  0.00    -0.394 N 
ATOM     14  H4  <0> d           0.396  -2.571  -0.015  0.00  0.00     0.159 HD
BRANCH  13  15
ATOM     15  C1  <0> d           2.508  -2.795  -0.035  0.00  0.00    -0.021 C 
ATOM     16  H1  <0> d           3.068  -2.521  -0.929  0.00  0.00     0.056 H 
ATOM     17  H2  <0> d           3.084  -2.530   0.851  0.00  0.00     0.056 H 
ATOM     18  H3  <0> d           2.320  -3.869  -0.039  0.00  0.00     0.056 H 
ENDBRANCH  13  15
ENDBRANCH   1  13
TORSDOF 2
