REMARK  3 active torsions:
REMARK  status: ('A' for Active; 'I' for Inactive)
REMARK    1  A    between atoms: C5_5  and  C7_7 
REMARK    2  A    between atoms: C7_7  and  C8_8 
REMARK    3  A    between atoms: C8_8  and  O1_9 
ROOT
ATOM      1  C1  <0> d          -0.017   1.379   0.010  0.00  0.00    -0.082 A 
ATOM      2  C2  <0> d           1.168   2.094   0.002  0.00  0.00    -0.082 A 
ATOM      3  C3  <0> d           2.377   1.430  -0.013  0.00  0.00    -0.062 A 
ATOM      4  C4  <0> d           2.404   0.034  -0.021  0.00  0.00     0.051 A 
ATOM      5  C5  <0> d           1.204  -0.681  -0.013  0.00  0.00    -0.035 A 
ATOM      6  C6  <0> d           0.002  -0.004   0.002  0.00  0.00    -0.075 A 
ATOM      7  C9  <0> d           3.655  -0.662  -0.038  0.00  0.00     0.100 C 
ATOM      8  N1  <0> d           4.648  -1.214  -0.051  0.00  0.00    -0.191 NA
ATOM      9  H1  <0> d          -0.961   1.904   0.026  0.00  0.00     0.083 H 
ATOM     10  H2  <0> d           1.147   3.173   0.008  0.00  0.00     0.083 H 
ATOM     11  H3  <0> d           3.302   1.989  -0.020  0.00  0.00     0.085 H 
ATOM     12  H4  <0> d          -0.926  -0.555   0.008  0.00  0.00     0.084 H 
ENDROOT
BRANCH   5  13
ATOM     13  C7  <0> d           1.223  -2.188  -0.022  0.00  0.00    -0.020 C 
ATOM     14  H5  <0> d           0.292  -2.560  -0.449  0.00  0.00     0.043 H 
ATOM     15  H6  <0> d           2.063  -2.537  -0.622  0.00  0.00     0.043 H 
BRANCH  13  16
ATOM     16  C8  <0> d           1.369  -2.704   1.411  0.00  0.00     0.020 C 
ATOM     17  H7  <0> d           2.300  -2.332   1.838  0.00  0.00     0.074 H 
ATOM     18  H8  <0> d           0.529  -2.355   2.011  0.00  0.00     0.074 H 
BRANCH  16  19
ATOM     19  O1  <0> d           1.387  -4.133   1.402  0.00  0.00    -0.401 OA
ATOM     20  H9  <0> d           1.478  -4.530   2.279  0.00  0.00     0.209 HD
ENDBRANCH  16  19
ENDBRANCH  13  16
ENDBRANCH   5  13
TORSDOF 3
