REMARK  4 active torsions:
REMARK  status: ('A' for Active; 'I' for Inactive)
REMARK    1  A    between atoms: C2_2  and  C3_3 
REMARK    2  A    between atoms: C3_3  and  N1_4 
REMARK    3  A    between atoms: N1_4  and  C4_5 
REMARK    4  A    between atoms: C4_5  and  C5_6 
ROOT
ATOM      1  N1  <0> d          -0.012   1.005   0.008  0.00  0.00     0.095 N 
ATOM      2  H6  <0> d           0.031  -0.092  -0.070  0.00  0.00     0.316 HD
ENDROOT
BRANCH   1   3
ATOM      3  C3  <0> d           1.353   1.550  -0.003  0.00  0.00     0.126 C 
ATOM      4  H4  <0> d           1.310   2.646   0.075  0.00  0.00     0.085 H 
ATOM      5  H5  <0> d           1.853   1.268  -0.941  0.00  0.00     0.085 H 
BRANCH   3   6
ATOM      6  C2  <0> d           2.125   0.993   1.166  0.00  0.00    -0.085 C 
ATOM      7  C1  <0> d           3.264   0.379   0.965  0.00  0.00    -0.123 C 
ATOM      8  H1  <0> d           3.828  -0.027   1.817  0.00  0.00     0.066 H 
ATOM      9  H2  <0> d           3.658   0.270  -0.057  0.00  0.00     0.066 H 
ATOM     10  H3  <0> d           1.731   1.102   2.187  0.00  0.00     0.078 H 
ENDBRANCH   3   6
ENDBRANCH   1   3
BRANCH   1  11
ATOM     11  C4  <0> d          -0.795   1.527  -1.120  0.00  0.00     0.200 C 
ATOM     12  H7  <0> d          -0.853   2.623  -1.050  0.00  0.00     0.093 H 
ATOM     13  H8  <0> d          -0.310   1.245  -2.066  0.00  0.00     0.093 H 
BRANCH  11  14
ATOM     14  C5  <0> d          -2.207   0.938  -1.076  0.00  0.00     0.413 C 
ATOM     15  F1  <0> d          -2.824   1.297   0.127  0.00  0.00    -0.169 F 
ATOM     16  F2  <0> d          -2.954   1.435  -2.149  0.00  0.00    -0.169 F 
ATOM     17  F3  <0> d          -2.134  -0.456  -1.165  0.00  0.00    -0.169 F 
ENDBRANCH  11  14
ENDBRANCH   1  11
TORSDOF 4
