REMARK  2 active torsions:
REMARK  status: ('A' for Active; 'I' for Inactive)
REMARK    1  A    between atoms: C5_6  and  C6_7 
REMARK    2  A    between atoms: C6_7  and  O1_8 
ROOT
ATOM      1  C1  <0> d          -1.240   3.785   0.034  0.00  0.00    -0.070 A 
ATOM      2  C2  <0> d          -1.233   2.399   0.021  0.00  0.00    -0.043 A 
ATOM      3  C3  <0> d          -0.021   1.732   0.012  0.00  0.00     0.125 A 
ATOM      4  N1  <0> d           1.117   2.400   0.004  0.00  0.00    -0.248 NA
ATOM      5  C4  <0> d           1.147   3.718   0.011  0.00  0.00     0.012 A 
ATOM      6  C5  <0> d          -0.024   4.452   0.026  0.00  0.00    -0.017 A 
ATOM      7 Cl1  <0> d           0.002  -0.004   0.002  0.00  0.00    -0.062 Cl
ATOM      8  H1  <0> d          -2.171   4.333   0.046  0.00  0.00     0.084 H 
ATOM      9  H2  <0> d          -2.162   1.848   0.022  0.00  0.00     0.088 H 
ATOM     10  H3  <0> d           2.097   4.231   0.004  0.00  0.00     0.115 H 
ENDROOT
BRANCH   6  11
ATOM     11  C6  <0> d           0.020   5.958   0.034  0.00  0.00     0.042 C 
ATOM     12  H4  <0> d          -0.855   6.345   0.558  0.00  0.00     0.081 H 
ATOM     13  H5  <0> d           0.925   6.293   0.541  0.00  0.00     0.081 H 
BRANCH  11  14
ATOM     14  O1  <0> d           0.021   6.442  -1.311  0.00  0.00    -0.396 OA
ATOM     15  H6  <0> d           0.048   7.406  -1.382  0.00  0.00     0.209 HD
ENDBRANCH  11  14
ENDBRANCH   6  11
TORSDOF 2
