REMARK  4 active torsions:
REMARK  status: ('A' for Active; 'I' for Inactive)
REMARK    1  A    between atoms: C1_1  and  C2_2 
REMARK    2  A    between atoms: C1_1  and  C3_4 
REMARK    3  A    between atoms: C2_2  and  O1_3 
REMARK    4  A    between atoms: C3_4  and  S1_5 
ROOT
ATOM      1  C1  <0> d           1.145   3.085   0.008  0.00  0.00    -0.031 C 
ATOM      2  H1  <0> d           0.591   3.404  -0.875  0.00  0.00     0.037 H 
ATOM      3  H2  <0> d           0.608   3.395   0.904  0.00  0.00     0.037 H 
ENDROOT
BRANCH   1   4
ATOM      4  C2  <0> d           1.286   1.562  -0.002  0.00  0.00     0.018 C 
ATOM      5  H3  <0> d           1.840   1.243   0.881  0.00  0.00     0.074 H 
ATOM      6  H4  <0> d           1.823   1.252  -0.899  0.00  0.00     0.074 H 
BRANCH   4   7
ATOM      7  O1  <0> d          -0.011   0.963   0.007  0.00  0.00    -0.401 OA
ATOM      8  H5  <0> d           0.002  -0.004   0.002  0.00  0.00     0.209 HD
ENDBRANCH   4   7
ENDBRANCH   1   4
BRANCH   1   9
ATOM      9  C3  <0> d           2.534   3.726  -0.002  0.00  0.00     0.047 C 
ATOM     10  H6  <0> d           3.088   3.407   0.881  0.00  0.00     0.060 H 
ATOM     11  H7  <0> d           3.071   3.417  -0.899  0.00  0.00     0.060 H 
BRANCH   9  12
ATOM     12  S1  <0> d           2.366   5.533   0.009  0.00  0.00     0.101 S 
ATOM     13  O2  <0> d           1.806   5.980  -1.218  0.00  0.00    -0.595 OA
ATOM     14  O3  <0> d           1.830   5.967   1.251  0.00  0.00    -0.595 OA
ATOM     15  O4  <0> d           3.795   6.058  -0.002  0.00  0.00    -0.595 OA
ENDBRANCH   9  12
ENDBRANCH   1   9
TORSDOF 4
