REMARK  2 active torsions:
REMARK  status: ('A' for Active; 'I' for Inactive)
REMARK    1  A    between atoms: C1_1  and  C2_2 
REMARK    2  A    between atoms: C3_3  and  O1_9 
ROOT
ATOM      1  C2  <0> d           2.381   1.415  -0.013  0.00  0.00     0.010 A 
ATOM      2  C3  <0> d           2.400   0.028  -0.020  0.00  0.00     0.074 A 
ATOM      3  C4  <0> d           1.207  -0.680  -0.013  0.00  0.00    -0.050 A 
ATOM      4  C5  <0> d           0.002  -0.004   0.002  0.00  0.00    -0.077 A 
ATOM      5  C6  <0> d          -0.017   1.378   0.010  0.00  0.00    -0.045 A 
ATOM      6  C7  <0> d           1.172   2.088   0.002  0.00  0.00     0.125 A 
ATOM      7  F1  <0> d           1.152   3.439   0.009  0.00  0.00    -0.205 F 
ATOM      8  H4  <0> d           1.220  -1.760  -0.019  0.00  0.00     0.087 H 
ATOM      9  H5  <0> d          -0.926  -0.556   0.008  0.00  0.00     0.083 H 
ATOM     10  H6  <0> d          -0.960   1.904   0.017  0.00  0.00     0.088 H 
ENDROOT
BRANCH   1  11
ATOM     11  C1  <0> d           3.675   2.187  -0.021  0.00  0.00    -0.046 C 
ATOM     12  H1  <0> d           3.977   2.379  -1.050  0.00  0.00     0.033 H 
ATOM     13  H2  <0> d           3.535   3.135   0.499  0.00  0.00     0.033 H 
ATOM     14  H3  <0> d           4.447   1.607   0.483  0.00  0.00     0.033 H 
ENDBRANCH   1  11
BRANCH   2  15
ATOM     15  O1  <0> d           3.585  -0.636  -0.034  0.00  0.00    -0.360 OA
ATOM     16  H7  <0> d           3.920  -0.824  -0.922  0.00  0.00     0.217 HD
ENDBRANCH   2  15
TORSDOF 2
