REMARK  4 active torsions:
REMARK  status: ('A' for Active; 'I' for Inactive)
REMARK    1  A    between atoms: C1_1  and  C2_2 
REMARK    2  A    between atoms: C3_3  and  N2_8 
REMARK    3  A    between atoms: C4_4  and  C5_7 
REMARK       I    between atoms: N2_8  and  C6_9 
REMARK    4  A    between atoms: C6_9  and  C7_11 
ROOT
ATOM      1  C2  <0> d          -0.587   2.289   1.243  0.00  0.00     0.087 A 
ATOM      2  C3  <0> d          -0.106   1.784   2.478  0.00  0.00     0.093 A 
ATOM      3  C4  <0> d          -1.231   1.621   3.223  0.00  0.00     0.103 A 
ATOM      4  O1  <0> d          -2.257   2.010   2.449  0.00  0.00    -0.216 OA
ATOM      5  N1  <0> d          -1.880   2.380   1.362  0.00  0.00    -0.131 NA
ENDROOT
BRANCH   2   6
ATOM      6  N2  <0> d           1.224   1.514   2.847  0.00  0.00    -0.324 N 
ATOM      7  C6  <0> d           2.043   0.869   1.992  0.00  0.00     0.218 C 
ATOM      8  O2  <0> d           1.648   0.568   0.885  0.00  0.00    -0.274 OA
ATOM      9  H7  <0> d           1.553   1.793   3.716  0.00  0.00     0.169 HD
BRANCH   7  10
ATOM     10  C7  <0> d           3.447   0.520   2.412  0.00  0.00    -0.003 C 
ATOM     11  H8  <0> d           3.619   0.868   3.431  0.00  0.00     0.040 H 
ATOM     12  H9  <0> d           3.582  -0.560   2.369  0.00  0.00     0.040 H 
ATOM     13  H10 <0> d           4.158   1.002   1.740  0.00  0.00     0.040 H 
ENDBRANCH   7  10
ENDBRANCH   2   6
BRANCH   1  14
ATOM     14  C1  <0> d           0.237   2.654   0.035  0.00  0.00    -0.031 C 
ATOM     15  H1  <0> d           0.206   1.837  -0.686  0.00  0.00     0.035 H 
ATOM     16  H2  <0> d           1.269   2.831   0.339  0.00  0.00     0.035 H 
ATOM     17  H3  <0> d          -0.167   3.557  -0.421  0.00  0.00     0.035 H 
ENDBRANCH   1  14
BRANCH   3  18
ATOM     18  C5  <0> d          -1.311   1.106   4.637  0.00  0.00    -0.027 C 
ATOM     19  H4  <0> d          -1.167   1.932   5.334  0.00  0.00     0.036 H 
ATOM     20  H5  <0> d          -2.289   0.655   4.805  0.00  0.00     0.036 H 
ATOM     21  H6  <0> d          -0.535   0.358   4.796  0.00  0.00     0.036 H 
ENDBRANCH   3  18
TORSDOF 4
