REMARK  5 active torsions:
REMARK  status: ('A' for Active; 'I' for Inactive)
REMARK    1  A    between atoms: C1_1  and  C2_2 
REMARK    2  A    between atoms: C2_2  and  C3_3 
REMARK    3  A    between atoms: C3_3  and  C4_4 
REMARK    4  A    between atoms: C4_4  and  C5_6 
REMARK    5  A    between atoms: C4_4  and  O2_11 
ROOT
ATOM      1  C4  <0> d           0.002  -0.004   0.002  0.00  0.00     0.082 C 
ATOM      2  H1  <0> d           0.450  -0.366   0.927  0.00  0.00     0.093 H 
ENDROOT
BRANCH   1   3
ATOM      3  C3  <0> d          -0.019   1.526   0.010  0.00  0.00    -0.036 C 
ATOM      4  H7  <0> d           1.004   1.903   0.003  0.00  0.00     0.037 H 
ATOM      5  H8  <0> d          -0.546   1.887  -0.873  0.00  0.00     0.037 H 
BRANCH   3   6
ATOM      6  C2  <0> d          -0.735   2.019   1.269  0.00  0.00    -0.066 C 
ATOM      7  H5  <0> d          -1.757   1.642   1.277  0.00  0.00     0.032 H 
ATOM      8  H6  <0> d          -0.208   1.658   2.152  0.00  0.00     0.032 H 
BRANCH   6   9
ATOM      9  C1  <0> d          -0.756   3.549   1.278  0.00  0.00    -0.076 C 
ATOM     10  H2  <0> d           0.267   3.926   1.270  0.00  0.00     0.027 H 
ATOM     11  H3  <0> d          -1.283   3.910   0.395  0.00  0.00     0.027 H 
ATOM     12  H4  <0> d          -1.266   3.901   2.174  0.00  0.00     0.027 H 
ENDBRANCH   6   9
ENDBRANCH   3   6
ENDBRANCH   1   3
BRANCH   1  13
ATOM     13  C5  <0> d           0.813  -0.489  -1.172  0.00  0.00     0.081 A 
ATOM     14  O1  <0> d           0.384  -0.571  -2.442  0.00  0.00    -0.324 OA
ATOM     15  C8  <0> d           1.372  -1.044  -3.219  0.00  0.00     0.019 A 
ATOM     16  C7  <0> d           2.449  -1.271  -2.446  0.00  0.00    -0.059 A 
ATOM     17  H11 <0> d           1.312  -1.214  -4.284  0.00  0.00     0.123 H 
ATOM     18  C6  <0> d           2.090  -0.908  -1.127  0.00  0.00    -0.050 A 
ATOM     19  H10 <0> d           3.406  -1.653  -2.770  0.00  0.00     0.086 H 
ATOM     20  H9  <0> d           2.720  -0.959  -0.251  0.00  0.00     0.087 H 
ENDBRANCH   1  13
BRANCH   1  21
ATOM     21  O2  <0> d          -1.335  -0.498  -0.105  0.00  0.00    -0.389 OA
ATOM     22  H12 <0> d          -1.796  -0.214  -0.907  0.00  0.00     0.210 HD
ENDBRANCH   1  21
TORSDOF 5
