REMARK  2 active torsions:
REMARK  status: ('A' for Active; 'I' for Inactive)
REMARK    1  A    between atoms: C1_1  and  C2_2 
REMARK    2  A    between atoms: C6_8  and  C7_11 
ROOT
ATOM      1  C2  <0> d           1.275   2.035   0.001  0.00  0.00     0.042 C 
ATOM      2  H1  <0> d           1.166   3.116  -0.080  0.00  0.00     0.083 H 
ATOM      3  C3  <0> d           2.007   1.689   1.303  0.00  0.00     0.014 C 
ATOM      4  C4  <0> d           1.970   0.185   1.479  0.00  0.00     0.131 C 
ATOM      5  O1  <0> d           2.969  -0.438   1.748  0.00  0.00    -0.298 OA
ATOM      6  C5  <0> d           0.635  -0.509   1.305  0.00  0.00     0.014 C 
ATOM      7  C6  <0> d           0.002  -0.004   0.002  0.00  0.00     0.042 C 
ATOM      8  H2  <0> d           0.588  -0.355  -0.847  0.00  0.00     0.083 H 
ATOM      9  O2  <0> d          -0.017   1.425   0.010  0.00  0.00    -0.381 OA
ATOM     10  H6  <0> d           1.551   2.139   2.071  0.00  0.00     0.048 H 
ATOM     11  H7  <0> d           3.041   2.028   1.246  0.00  0.00     0.048 H 
ATOM     12  H8  <0> d           0.044  -0.295   2.083  0.00  0.00     0.048 H 
ATOM     13  H9  <0> d           0.784  -1.587   1.248  0.00  0.00     0.048 H 
ENDROOT
BRANCH   1  14
ATOM     14  C1  <0> d           2.079   1.512  -1.191  0.00  0.00    -0.052 C 
ATOM     15  H3  <0> d           1.556   1.754  -2.116  0.00  0.00     0.030 H 
ATOM     16  H4  <0> d           3.064   1.977  -1.198  0.00  0.00     0.030 H 
ATOM     17  H5  <0> d           2.188   0.430  -1.109  0.00  0.00     0.030 H 
ENDBRANCH   1  14
BRANCH   7  18
ATOM     18  C7  <0> d          -1.429  -0.534  -0.111  0.00  0.00    -0.052 C 
ATOM     19  H10 <0> d          -1.879  -0.172  -1.035  0.00  0.00     0.030 H 
ATOM     20  H11 <0> d          -1.413  -1.624  -0.117  0.00  0.00     0.030 H 
ATOM     21  H12 <0> d          -2.014  -0.183   0.740  0.00  0.00     0.030 H 
ENDBRANCH   7  18
TORSDOF 2
