REMARK  2 active torsions:
REMARK  status: ('A' for Active; 'I' for Inactive)
REMARK    1  A    between atoms: C2_2  and  C5_8 
REMARK    2  A    between atoms: C5_8  and  O1_9 
ROOT
ATOM      1  C1  <0> d          -0.016   1.317   0.009  0.00  0.00     0.030 A 
ATOM      2  C2  <0> d           1.173   2.026   0.002  0.00  0.00     0.075 A 
ATOM      3  N1  <0> d           2.326   1.382  -0.013  0.00  0.00    -0.259 NA
ATOM      4  C3  <0> d           2.346   0.061  -0.020  0.00  0.00     0.042 A 
ATOM      5  C4  <0> d           1.156  -0.649  -0.012  0.00  0.00     0.143 A 
ATOM      6  N2  <0> d           0.002  -0.004   0.002  0.00  0.00    -0.245 NA
ATOM      7 Cl1  <0> d           1.181  -2.385  -0.022  0.00  0.00    -0.061 Cl
ATOM      8  H1  <0> d          -0.958   1.844   0.026  0.00  0.00     0.118 H 
ATOM      9  H2  <0> d           3.289  -0.466  -0.033  0.00  0.00     0.119 H 
ENDROOT
BRANCH   2  10
ATOM     10  C5  <0> d           1.151   3.532   0.010  0.00  0.00     0.058 C 
ATOM     11  H3  <0> d           1.668   3.898   0.897  0.00  0.00     0.083 H 
ATOM     12  H4  <0> d           1.651   3.908  -0.883  0.00  0.00     0.083 H 
BRANCH  10  13
ATOM     13  O1  <0> d          -0.203   3.990   0.025  0.00  0.00    -0.395 OA
ATOM     14  H5  <0> d          -0.293   4.952   0.031  0.00  0.00     0.209 HD
ENDBRANCH  10  13
ENDBRANCH   2  10
TORSDOF 2
