REMARK  2 active torsions:
REMARK  status: ('A' for Active; 'I' for Inactive)
REMARK    1  A    between atoms: C1_1  and  C2_2 
REMARK    2  A    between atoms: C5_5  and  C7_8 
REMARK       I    between atoms: C7_8  and  N2_10 
ROOT
ATOM      1  C2  <0> d          -4.755  -0.596   0.020  0.00  0.00     0.030 A 
ATOM      2  C3  <0> d          -4.846   0.784   0.029  0.00  0.00    -0.059 A 
ATOM      3  C4  <0> d          -3.686   1.539   0.028  0.00  0.00    -0.064 A 
ATOM      4  C5  <0> d          -2.458   0.867   0.018  0.00  0.00     0.049 A 
ATOM      5  C6  <0> d          -2.452  -0.528   0.005  0.00  0.00     0.018 A 
ATOM      6  N1  <0> d          -3.583  -1.202   0.012  0.00  0.00    -0.265 NA
ATOM      7  H4  <0> d          -5.811   1.268   0.036  0.00  0.00     0.086 H 
ATOM      8  H5  <0> d          -3.727   2.618   0.034  0.00  0.00     0.085 H 
ATOM      9  H6  <0> d          -1.512  -1.060  -0.007  0.00  0.00     0.116 H 
ENDROOT
BRANCH   4  10
ATOM     10  C7  <0> d          -1.187   1.624   0.017  0.00  0.00     0.250 C 
ATOM     11  O1  <0> d          -1.204   2.839   0.023  0.00  0.00    -0.268 OA
ATOM     12  N2  <0> d          -0.011   0.966   0.007  0.00  0.00    -0.366 N 
ATOM     13  H7  <0> d           0.002  -0.004   0.002  0.00  0.00     0.159 HD
ATOM     14  H8  <0> d           0.822   1.462   0.002  0.00  0.00     0.159 HD
ENDBRANCH   4  10
BRANCH   1  15
ATOM     15  C1  <0> d          -6.016  -1.421   0.021  0.00  0.00    -0.035 C 
ATOM     16  H1  <0> d          -6.325  -1.615  -1.006  0.00  0.00     0.035 H 
ATOM     17  H2  <0> d          -5.831  -2.368   0.529  0.00  0.00     0.035 H 
ATOM     18  H3  <0> d          -6.805  -0.879   0.542  0.00  0.00     0.035 H 
ENDBRANCH   1  15
TORSDOF 2
