REMARK  7 active torsions:
REMARK  status: ('A' for Active; 'I' for Inactive)
REMARK    1  A    between atoms: C1_1  and  C2_2 
REMARK    2  A    between atoms: C2_2  and  O1_3 
REMARK    3  A    between atoms: O1_3  and  C3_4 
REMARK    4  A    between atoms: C3_4  and  C4_6 
REMARK    5  A    between atoms: C4_6  and  C5_7 
REMARK    6  A    between atoms: C4_6  and  C6_8 
REMARK    7  A    between atoms: C4_6  and  C7_9 
ROOT
ATOM      1  C4  <0> d           1.280   1.975   0.000  0.00  0.00     0.037 C 
ENDROOT
BRANCH   1   2
ATOM      2  C3  <0> d          -0.014   1.204   0.009  0.00  0.00     0.266 C 
ATOM      3  O2  <0> d           0.002  -0.004   0.002  0.00  0.00    -0.264 OA
BRANCH   2   4
ATOM      4  O1  <0> d          -1.186   1.859   0.018  0.00  0.00    -0.321 OA
BRANCH   4   5
ATOM      5  C2  <0> d          -2.393   1.052   0.019  0.00  0.00     0.025 C 
ATOM      6  H4  <0> d          -2.413   0.428  -0.874  0.00  0.00     0.074 H 
ATOM      7  H5  <0> d          -2.405   0.418   0.906  0.00  0.00     0.074 H 
BRANCH   5   8
ATOM      8  C1  <0> d          -3.619   1.968   0.030  0.00  0.00    -0.056 C 
ATOM      9  H1  <0> d          -3.606   2.601  -0.857  0.00  0.00     0.030 H 
ATOM     10  H2  <0> d          -4.524   1.361   0.031  0.00  0.00     0.030 H 
ATOM     11  H3  <0> d          -3.598   2.592   0.923  0.00  0.00     0.030 H 
ENDBRANCH   5   8
ENDBRANCH   4   5
ENDBRANCH   2   4
ENDBRANCH   1   2
BRANCH   1  12
ATOM     12  C5  <0> d           2.457   0.997  -0.016  0.00  0.00    -0.061 C 
ATOM     13  H6  <0> d           2.399   0.374  -0.909  0.00  0.00     0.029 H 
ATOM     14  H7  <0> d           3.393   1.555  -0.022  0.00  0.00     0.029 H 
ATOM     15  H8  <0> d           2.416   0.365   0.871  0.00  0.00     0.029 H 
ENDBRANCH   1  12
BRANCH   1  16
ATOM     16  C6  <0> d           1.338   2.863  -1.245  0.00  0.00    -0.061 C 
ATOM     17  H9  <0> d           0.500   3.559  -1.233  0.00  0.00     0.029 H 
ATOM     18  H10 <0> d           2.274   3.420  -1.251  0.00  0.00     0.029 H 
ATOM     19  H11 <0> d           1.280   2.240  -2.138  0.00  0.00     0.029 H 
ENDBRANCH   1  16
BRANCH   1  20
ATOM     20  C7  <0> d           1.361   2.849   1.254  0.00  0.00    -0.061 C 
ATOM     21  H12 <0> d           1.321   2.217   2.141  0.00  0.00     0.029 H 
ATOM     22  H13 <0> d           2.298   3.407   1.248  0.00  0.00     0.029 H 
ATOM     23  H14 <0> d           0.523   3.546   1.265  0.00  0.00     0.029 H 
ENDBRANCH   1  20
TORSDOF 7
