REMARK  3 active torsions:
REMARK  status: ('A' for Active; 'I' for Inactive)
REMARK    1  A    between atoms: C1_1  and  C2_2 
REMARK    2  A    between atoms: C2_2  and  O1_3 
REMARK    3  A    between atoms: O1_3  and  C3_4 
ROOT
ATOM      1  C3  <0> d          -0.136   4.152   0.025  0.00  0.00     0.164 A 
ATOM      2  C4  <0> d           1.111   3.534   0.010  0.00  0.00    -0.030 A 
ATOM      3  C5  <0> d           1.182   2.156   0.002  0.00  0.00    -0.057 A 
ATOM      4  C6  <0> d          -0.017   1.428   0.010  0.00  0.00     0.062 A 
ATOM      5  C7  <0> d          -1.229   2.120   0.019  0.00  0.00     0.025 A 
ATOM      6  N1  <0> d          -1.250   3.437   0.032  0.00  0.00    -0.236 NA
ATOM      7  C8  <0> d           0.002  -0.004   0.002  0.00  0.00     0.101 C 
ATOM      8  N2  <0> d           0.018  -1.140  -0.004  0.00  0.00    -0.191 NA
ATOM      9  H6  <0> d           2.014   4.127   0.004  0.00  0.00     0.090 H 
ATOM     10  H7  <0> d           2.136   1.651  -0.009  0.00  0.00     0.086 H 
ATOM     11  H8  <0> d          -2.159   1.570   0.021  0.00  0.00     0.117 H 
ENDROOT
BRANCH   1  12
ATOM     12  O1  <0> d          -0.211   5.505   0.032  0.00  0.00    -0.335 OA
BRANCH  12  13
ATOM     13  C2  <0> d          -1.518   6.082   0.047  0.00  0.00     0.024 C 
ATOM     14  H4  <0> d          -2.055   5.751   0.949  0.00  0.00     0.074 H 
ATOM     15  H5  <0> d          -2.071   5.760  -0.847  0.00  0.00     0.074 H 
BRANCH  13  16
ATOM     16  C1  <0> d          -1.402   7.608   0.054  0.00  0.00    -0.056 C 
ATOM     17  H1  <0> d          -2.408   8.052   0.066  0.00  0.00     0.030 H 
ATOM     18  H2  <0> d          -0.866   7.938  -0.848  0.00  0.00     0.030 H 
ATOM     19  H3  <0> d          -0.849   7.929   0.949  0.00  0.00     0.030 H 
ENDBRANCH  13  16
ENDBRANCH  12  13
ENDBRANCH   1  12
TORSDOF 3
