REMARK  2 active torsions:
REMARK  status: ('A' for Active; 'I' for Inactive)
REMARK    1  A    between atoms: C1_1  and  O1_2 
REMARK    2  A    between atoms: O1_2  and  C2_3 
ROOT
ATOM      1  C2  <0> d           0.652  -0.570  -1.138  0.00  0.00     0.134 C 
ATOM      2  H1  <0> d           0.277  -0.118  -2.056  0.00  0.00     0.129 H 
ATOM      3  C3  <0> d           0.457  -2.108  -1.169  0.00  0.00    -0.014 C 
ATOM      4  C4  <0> d           1.680  -2.574  -1.998  0.00  0.00    -0.008 C 
ATOM      5  C5  <0> d           2.673  -1.406  -1.884  0.00  0.00     0.167 C 
ATOM      6  O2  <0> d           2.084  -0.408  -1.039  0.00  0.00    -0.325 OA
ATOM      7  C6  <0> d           3.999  -1.899  -1.284  0.00  0.00    -0.011 C 
ATOM      8  C7  <0> d           5.055  -1.532  -2.357  0.00  0.00    -0.040 C 
ATOM      9  C8  <0> d           4.329  -0.423  -3.161  0.00  0.00     0.023 C 
ATOM     10  O3  <0> d           2.953  -0.863  -3.179  0.00  0.00    -0.355 OA
ATOM     11  H5  <0> d           0.489  -2.524  -0.162  0.00  0.00     0.040 H 
ATOM     12  H6  <0> d          -0.475  -2.372  -1.668  0.00  0.00     0.040 H 
ATOM     13  H7  <0> d           2.107  -3.482  -1.573  0.00  0.00     0.041 H 
ATOM     14  H8  <0> d           1.397  -2.734  -3.039  0.00  0.00     0.041 H 
ATOM     15  H9  <0> d           4.210  -1.383  -0.347  0.00  0.00     0.041 H 
ATOM     16  H10 <0> d           3.971  -2.978  -1.129  0.00  0.00     0.041 H 
ATOM     17  H11 <0> d           5.963  -1.145  -1.893  0.00  0.00     0.036 H 
ATOM     18  H12 <0> d           5.279  -2.389  -2.991  0.00  0.00     0.036 H 
ATOM     19  H13 <0> d           4.418   0.538  -2.655  0.00  0.00     0.074 H 
ATOM     20  H14 <0> d           4.726  -0.362  -4.174  0.00  0.00     0.074 H 
ENDROOT
BRANCH   1  21
ATOM     21  O1  <0> d           0.002  -0.004   0.002  0.00  0.00    -0.366 OA
BRANCH  21  22
ATOM     22  C1  <0> d          -0.017   1.425   0.010  0.00  0.00     0.007 C 
ATOM     23  H2  <0> d           1.005   1.802   0.002  0.00  0.00     0.066 H 
ATOM     24  H3  <0> d          -0.544   1.786  -0.873  0.00  0.00     0.066 H 
ATOM     25  H4  <0> d          -0.527   1.776   0.907  0.00  0.00     0.066 H 
ENDBRANCH  21  22
ENDBRANCH   1  21
TORSDOF 2
