REMARK  3 active torsions:
REMARK  status: ('A' for Active; 'I' for Inactive)
REMARK    1  A    between atoms: C1_1  and  C2_2 
REMARK    2  A    between atoms: C2_2  and  C3_3 
REMARK    3  A    between atoms: C4_4  and  C7_9 
ROOT
ATOM      1  C3  <0> d          -1.231   3.000  -0.194  0.00  0.00     0.054 A 
ATOM      2  C4  <0> d          -0.076   3.753   0.048  0.00  0.00     0.083 A 
ATOM      3  C5  <0> d           1.127   3.068   0.255  0.00  0.00     0.022 A 
ATOM      4  N1  <0> d           1.125   1.747   0.214  0.00  0.00    -0.253 NA
ATOM      5  C6  <0> d           0.013   1.077  -0.017  0.00  0.00     0.086 A 
ATOM      6  N2  <0> d          -1.141   1.682  -0.222  0.00  0.00    -0.245 NA
ATOM      7  H6  <0> d           2.042   3.610   0.445  0.00  0.00     0.116 H 
ATOM      8  H7  <0> d           0.049  -0.002  -0.043  0.00  0.00     0.146 H 
ENDROOT
BRANCH   1   9
ATOM      9  C2  <0> d          -2.555   3.682  -0.425  0.00  0.00    -0.027 C 
ATOM     10  H4  <0> d          -3.216   3.015  -0.997  0.00  0.00     0.041 H 
ATOM     11  H5  <0> d          -2.395   4.612  -0.989  0.00  0.00     0.041 H 
BRANCH   9  12
ATOM     12  C1  <0> d          -3.203   4.007   0.923  0.00  0.00    -0.071 C 
ATOM     13  H1  <0> d          -4.169   4.505   0.755  0.00  0.00     0.028 H 
ATOM     14  H2  <0> d          -2.542   4.674   1.496  0.00  0.00     0.028 H 
ATOM     15  H3  <0> d          -3.363   3.077   1.487  0.00  0.00     0.028 H 
ENDBRANCH   9  12
ENDBRANCH   1   9
BRANCH   2  16
ATOM     16  C7  <0> d          -0.125   5.229   0.083  0.00  0.00     0.212 C 
ATOM     17  O1  <0> d          -1.192   5.803   0.007  0.00  0.00    -0.644 OA
ATOM     18  O2  <0> d           1.014   5.938   0.201  0.00  0.00    -0.644 OA
ENDBRANCH   2  16
TORSDOF 3
