REMARK  0 active torsions:
REMARK  status: ('A' for Active; 'I' for Inactive)
ROOT
ATOM      1  C1  <0> d           0.822   0.114  -2.325  0.00  0.00     0.029 C 
ATOM      2  C2  <0> d           2.153   0.808  -2.019  0.00  0.00     0.027 C 
ATOM      3  O1  <0> d           1.927   2.024  -1.326  0.00  0.00    -0.389 OA
ATOM      4  C3  <0> d           1.427   1.975  -0.001  0.00  0.00     0.034 C 
ATOM      5  C4  <0> d          -0.018   1.468   0.010  0.00  0.00     0.015 C 
ATOM      6  N1  <0> d           0.002  -0.004   0.002  0.00  0.00    -0.359 N 
ATOM      7  C5  <0> d           0.395  -0.661  -1.095  0.00  0.00     0.219 C 
ATOM      8  O2  <0> d           0.408  -1.874  -1.106  0.00  0.00    -0.274 OA
ATOM      9  H1  <0> d           0.949  -0.570  -3.164  0.00  0.00     0.050 H 
ATOM     10  H2  <0> d           0.066   0.860  -2.569  0.00  0.00     0.050 H 
ATOM     11  H3  <0> d           2.770   0.152  -1.404  0.00  0.00     0.075 H 
ATOM     12  H4  <0> d           2.674   1.017  -2.953  0.00  0.00     0.075 H 
ATOM     13  H5  <0> d           1.460   2.975   0.433  0.00  0.00     0.076 H 
ATOM     14  H6  <0> d           2.048   1.305   0.593  0.00  0.00     0.076 H 
ATOM     15  H7  <0> d          -0.540   1.832  -0.875  0.00  0.00     0.067 H 
ATOM     16  H8  <0> d          -0.523   1.822   0.908  0.00  0.00     0.067 H 
ATOM     17  H9  <0> d          -0.270  -0.497   0.792  0.00  0.00     0.162 HD
ENDROOT
TORSDOF 0
