REMARK  3 active torsions:
REMARK  status: ('A' for Active; 'I' for Inactive)
REMARK    1  A    between atoms: C1_1  and  C2_2 
REMARK    2  A    between atoms: C3_4  and  C5_7 
REMARK       I    between atoms: C5_7  and  N2_9 
REMARK    3  A    between atoms: N2_9  and  C6_10 
ROOT
ATOM      1  C2  <0> d           2.049   0.728  -0.014  0.00  0.00     0.141 A 
ATOM      2  N1  <0> d           1.278   1.774  -0.001  0.00  0.00    -0.222 NA
ATOM      3  C3  <0> d          -0.016   1.357   0.009  0.00  0.00     0.149 A 
ATOM      4  C4  <0> d           0.002  -0.004   0.002  0.00  0.00     0.054 A 
ATOM      5  O1  <0> d           1.291  -0.378  -0.012  0.00  0.00    -0.306 OA
ATOM      6  H4  <0> d          -0.857  -0.659   0.006  0.00  0.00     0.127 H 
ENDROOT
BRANCH   3   7
ATOM      7  C5  <0> d          -1.214   2.216   0.020  0.00  0.00     0.271 C 
ATOM      8  O2  <0> d          -2.322   1.715   0.023  0.00  0.00    -0.266 OA
ATOM      9  N2  <0> d          -1.081   3.558   0.027  0.00  0.00    -0.360 N 
ATOM     10  H5  <0> d          -0.079   4.011   0.024  0.00  0.00     0.162 HD
BRANCH   9  11
ATOM     11  C6  <0> d          -2.271   4.412   0.037  0.00  0.00    -0.018 C 
ATOM     12  H6  <0> d          -1.964   5.468   0.042  0.00  0.00     0.056 H 
ATOM     13  H7  <0> d          -2.867   4.199   0.937  0.00  0.00     0.056 H 
ATOM     14  H8  <0> d          -2.876   4.209  -0.859  0.00  0.00     0.056 H 
ENDBRANCH   9  11
ENDBRANCH   3   7
BRANCH   1  15
ATOM     15  C1  <0> d           3.555   0.754  -0.028  0.00  0.00    -0.015 C 
ATOM     16  H1  <0> d           3.904   1.797  -0.025  0.00  0.00     0.038 H 
ATOM     17  H2  <0> d           3.922   0.247  -0.932  0.00  0.00     0.038 H 
ATOM     18  H3  <0> d           3.939   0.237   0.864  0.00  0.00     0.038 H 
ENDBRANCH   1  15
TORSDOF 3
