REMARK  5 active torsions:
REMARK  status: ('A' for Active; 'I' for Inactive)
REMARK    1  A    between atoms: C1_1  and  C2_2 
REMARK    2  A    between atoms: C2_2  and  C3_3 
REMARK    3  A    between atoms: C3_3  and  C4_5 
REMARK    4  A    between atoms: C3_3  and  C5_7 
REMARK    5  A    between atoms: C4_5  and  O1_6 
ROOT
ATOM      1  C3  <0> d          -1.329   1.940   0.019  0.00  0.00     0.050 C 
ATOM      2  H1  <0> d          -1.400   2.570  -0.867  0.00  0.00     0.059 H 
ENDROOT
BRANCH   1   3
ATOM      3  C2  <0> d          -1.417   2.811   1.273  0.00  0.00    -0.054 C 
ATOM      4  H5  <0> d          -2.402   3.274   1.326  0.00  0.00     0.033 H 
ATOM      5  H6  <0> d          -1.257   2.193   2.157  0.00  0.00     0.033 H 
BRANCH   3   6
ATOM      6  C1  <0> d          -0.344   3.901   1.213  0.00  0.00    -0.076 C 
ATOM      7  H2  <0> d           0.641   3.438   1.160  0.00  0.00     0.027 H 
ATOM      8  H3  <0> d          -0.503   4.519   0.329  0.00  0.00     0.027 H 
ATOM      9  H4  <0> d          -0.406   4.522   2.107  0.00  0.00     0.027 H 
ENDBRANCH   3   6
ENDBRANCH   1   3
BRANCH   1  10
ATOM     10  C4  <0> d          -2.479   0.930   0.019  0.00  0.00     0.029 C 
ATOM     11  H7  <0> d          -2.359   0.243   0.856  0.00  0.00     0.075 H 
ATOM     12  H8  <0> d          -3.427   1.458   0.116  0.00  0.00     0.075 H 
BRANCH  10  13
ATOM     13  O1  <0> d          -2.467   0.194  -1.206  0.00  0.00    -0.400 OA
ATOM     14  H9  <0> d          -3.170  -0.466  -1.276  0.00  0.00     0.209 HD
ENDBRANCH  10  13
ENDBRANCH   1  10
BRANCH   1  15
ATOM     15  C5  <0> d          -0.014   1.204   0.009  0.00  0.00     0.179 C 
ATOM     16  O2  <0> d           0.002  -0.004   0.002  0.00  0.00    -0.648 OA
ATOM     17  O3  <0> d           1.139   1.891   0.001  0.00  0.00    -0.648 OA
ENDBRANCH   1  15
TORSDOF 5
