REMARK  9 active torsions:
REMARK  status: ('A' for Active; 'I' for Inactive)
REMARK    1  A    between atoms: C1_1  and  C2_2 
REMARK    2  A    between atoms: C2_2  and  C3_4 
REMARK    3  A    between atoms: C2_2  and  C5_7 
REMARK    4  A    between atoms: C3_4  and  C4_5 
REMARK    5  A    between atoms: C4_5  and  O1_6 
REMARK    6  A    between atoms: C5_7  and  C6_8 
REMARK    7  A    between atoms: C6_8  and  C7_9 
REMARK    8  A    between atoms: C6_8  and  C8_10 
REMARK    9  A    between atoms: C6_8  and  C9_11 
ROOT
ATOM      1  C5  <0> d           1.983   5.508  -0.149  0.00  0.00    -0.056 C 
ATOM      2  H10 <0> d           1.591   6.117  -0.962  0.00  0.00     0.034 H 
ATOM      3  H11 <0> d           1.405   5.694   0.757  0.00  0.00     0.034 H 
ENDROOT
BRANCH   1   4
ATOM      4  C2  <0> d           1.880   4.028  -0.525  0.00  0.00    -0.055 C 
ATOM      5  H1  <0> d           2.553   3.445   0.104  0.00  0.00     0.039 H 
BRANCH   4   6
ATOM      6  C1  <0> d           2.269   3.847  -1.993  0.00  0.00    -0.073 C 
ATOM      7  H2  <0> d           1.724   4.566  -2.605  0.00  0.00     0.028 H 
ATOM      8  H3  <0> d           3.341   4.010  -2.108  0.00  0.00     0.028 H 
ATOM      9  H4  <0> d           2.019   2.835  -2.313  0.00  0.00     0.028 H 
ENDBRANCH   4   6
BRANCH   4  10
ATOM     10  C3  <0> d           0.443   3.548  -0.315  0.00  0.00    -0.042 C 
ATOM     11  H5  <0> d          -0.219   4.068  -1.007  0.00  0.00     0.036 H 
ATOM     12  H6  <0> d           0.135   3.758   0.710  0.00  0.00     0.036 H 
BRANCH  10  13
ATOM     13  C4  <0> d           0.366   2.041  -0.571  0.00  0.00     0.017 C 
ATOM     14  H7  <0> d           1.028   1.521   0.122  0.00  0.00     0.073 H 
ATOM     15  H8  <0> d           0.673   1.831  -1.595  0.00  0.00     0.073 H 
BRANCH  13  16
ATOM     16  O1  <0> d          -0.977   1.592  -0.374  0.00  0.00    -0.401 OA
ATOM     17  H9  <0> d          -1.100   0.644  -0.520  0.00  0.00     0.209 HD
ENDBRANCH  13  16
ENDBRANCH  10  13
ENDBRANCH   4  10
ENDBRANCH   1   4
BRANCH   1  18
ATOM     18  C6  <0> d           3.449   5.870   0.099  0.00  0.00    -0.051 C 
BRANCH  18  19
ATOM     19  C7  <0> d           4.261   5.605  -1.171  0.00  0.00    -0.070 C 
ATOM     20  H12 <0> d           3.670   5.880  -2.044  0.00  0.00     0.028 H 
ATOM     21  H13 <0> d           5.175   6.199  -1.149  0.00  0.00     0.028 H 
ATOM     22  H14 <0> d           4.517   4.547  -1.224  0.00  0.00     0.028 H 
ENDBRANCH  18  19
BRANCH  18  23
ATOM     23  C8  <0> d           3.553   7.350   0.471  0.00  0.00    -0.070 C 
ATOM     24  H15 <0> d           2.974   7.539   1.375  0.00  0.00     0.028 H 
ATOM     25  H16 <0> d           4.597   7.608   0.647  0.00  0.00     0.028 H 
ATOM     26  H17 <0> d           3.161   7.958  -0.344  0.00  0.00     0.028 H 
ENDBRANCH  18  23
BRANCH  18  27
ATOM     27  C9  <0> d           3.999   5.016   1.243  0.00  0.00    -0.070 C 
ATOM     28  H18 <0> d           3.925   3.962   0.978  0.00  0.00     0.028 H 
ATOM     29  H19 <0> d           5.044   5.274   1.419  0.00  0.00     0.028 H 
ATOM     30  H20 <0> d           3.421   5.205   2.147  0.00  0.00     0.028 H 
ENDBRANCH  18  27
ENDBRANCH   1  18
TORSDOF 9
