REMARK  7 active torsions:
REMARK  status: ('A' for Active; 'I' for Inactive)
REMARK    1  A    between atoms: C1_1  and  C2_2 
REMARK    2  A    between atoms: C2_2  and  C3_3 
REMARK    3  A    between atoms: C3_3  and  C4_4 
REMARK    4  A    between atoms: C4_4  and  C5_5 
REMARK    5  A    between atoms: C4_4  and  N2_10 
REMARK    6  A    between atoms: C5_5  and  C6_6 
REMARK    7  A    between atoms: C6_6  and  C7_7 
ROOT
ATOM      1  C4  <0> d          -0.795   1.527  -1.120  0.00  0.00     0.242 C 
ATOM      2  C8  <0> d          -2.153   0.960  -1.077  0.00  0.00     0.101 C 
ATOM      3  N1  <0> d          -3.201   0.523  -1.044  0.00  0.00    -0.195 NA
ENDROOT
BRANCH   1   4
ATOM      4  C3  <0> d          -0.876   3.052  -1.022  0.00  0.00    -0.019 C 
ATOM      5  H6  <0> d          -1.536   3.436  -1.814  0.00  0.00     0.038 H 
ATOM      6  H7  <0> d           0.130   3.480  -1.144  0.00  0.00     0.038 H 
BRANCH   4   7
ATOM      7  C2  <0> d          -1.436   3.447   0.345  0.00  0.00    -0.065 C 
ATOM      8  H4  <0> d          -0.776   3.063   1.137  0.00  0.00     0.032 H 
ATOM      9  H5  <0> d          -2.442   3.018   0.467  0.00  0.00     0.032 H 
BRANCH   7  10
ATOM     10  C1  <0> d          -1.517   4.971   0.443  0.00  0.00    -0.076 C 
ATOM     11  H1  <0> d          -1.920   5.255   1.426  0.00  0.00     0.027 H 
ATOM     12  H2  <0> d          -2.177   5.355  -0.349  0.00  0.00     0.027 H 
ATOM     13  H3  <0> d          -0.511   5.400   0.321  0.00  0.00     0.027 H 
ENDBRANCH   7  10
ENDBRANCH   4   7
ENDBRANCH   1   4
BRANCH   1  14
ATOM     14  C5  <0> d          -0.120   1.135  -2.436  0.00  0.00    -0.019 C 
ATOM     15  H8  <0> d          -0.707   1.526  -3.280  0.00  0.00     0.038 H 
ATOM     16  H9  <0> d           0.895   1.558  -2.467  0.00  0.00     0.038 H 
BRANCH  14  17
ATOM     17  C6  <0> d          -0.040  -0.390  -2.533  0.00  0.00    -0.065 C 
ATOM     18  H10 <0> d           0.547  -0.781  -1.689  0.00  0.00     0.032 H 
ATOM     19  H11 <0> d          -1.055  -0.813  -2.501  0.00  0.00     0.032 H 
BRANCH  17  20
ATOM     20  C7  <0> d           0.635  -0.782  -3.849  0.00  0.00    -0.076 C 
ATOM     21  H12 <0> d           0.693  -1.879  -3.919  0.00  0.00     0.027 H 
ATOM     22  H13 <0> d           1.650  -0.359  -3.880  0.00  0.00     0.027 H 
ATOM     23  H14 <0> d           0.048  -0.391  -4.693  0.00  0.00     0.027 H 
ENDBRANCH  17  20
ENDBRANCH  14  17
ENDBRANCH   1  14
BRANCH   1  24
ATOM     24  N2  <0> d          -0.012   1.005   0.008  0.00  0.00     0.102 N 
ATOM     25  H15 <0> d           0.046  -0.091  -0.062  0.00  0.00     0.315 HD
ATOM     26  H16 <0> d           1.003   1.428  -0.024  0.00  0.00     0.315 HD
ENDBRANCH   1  24
TORSDOF 7
