REMARK  0 active torsions:
REMARK  status: ('A' for Active; 'I' for Inactive)
ROOT
ATOM      1  C1  <0> d           0.589  -0.509  -1.311  0.00  0.00    -0.049 C 
ATOM      2  C2  <0> d           2.027  -0.034  -1.497  0.00  0.00    -0.009 C 
ATOM      3  C3  <0> d           2.150   1.436  -1.184  0.00  0.00     0.131 C 
ATOM      4  O1  <0> d           2.836   2.148  -1.890  0.00  0.00    -0.298 OA
ATOM      5  C4  <0> d           1.428   2.030  -0.001  0.00  0.00     0.005 C 
ATOM      6  H1  <0> d           1.431   3.027  -0.075  0.00  0.00     0.051 H 
ATOM      7  C5  <0> d           2.122   1.634   1.300  0.00  0.00    -0.049 C 
ATOM      8  C6  <0> d           2.176   0.114   1.449  0.00  0.00    -0.009 C 
ATOM      9  C7  <0> d           0.818  -0.487   1.176  0.00  0.00     0.131 C 
ATOM     10  O2  <0> d           0.384  -1.357   1.900  0.00  0.00    -0.298 OA
ATOM     11  C8  <0> d           0.002  -0.004   0.002  0.00  0.00     0.005 C 
ATOM     12  H2  <0> d          -0.933  -0.344   0.102  0.00  0.00     0.051 H 
ATOM     13  C9  <0> d          -0.019   1.528   0.010  0.00  0.00    -0.046 C 
ATOM     14  H3  <0> d           0.564  -1.603  -1.322  0.00  0.00     0.034 H 
ATOM     15  H4  <0> d          -0.023  -0.146  -2.143  0.00  0.00     0.034 H 
ATOM     16  H5  <0> d           2.300  -0.163  -2.450  0.00  0.00     0.044 H 
ATOM     17  H6  <0> d           2.702  -0.618  -0.876  0.00  0.00     0.044 H 
ATOM     18  H7  <0> d           1.576   2.062   2.145  0.00  0.00     0.034 H 
ATOM     19  H8  <0> d           3.139   2.035   1.304  0.00  0.00     0.034 H 
ATOM     20  H9  <0> d           2.433  -0.120   2.386  0.00  0.00     0.044 H 
ATOM     21  H10 <0> d           2.925  -0.306   0.783  0.00  0.00     0.044 H 
ATOM     22  H11 <0> d          -0.541   1.892  -0.874  0.00  0.00     0.035 H 
ATOM     23  H12 <0> d          -0.523   1.882   0.908  0.00  0.00     0.035 H 
ENDROOT
TORSDOF 0
