REMARK  2 active torsions:
REMARK  status: ('A' for Active; 'I' for Inactive)
REMARK    1  A    between atoms: C1_1  and  N1_2 
REMARK    2  A    between atoms: C7_8  and  N3_11 
ROOT
ATOM      1  N1  <0> d           3.073  -2.003  -0.039  0.00  0.00    -0.284 N 
ATOM      2  C2  <0> d           3.574  -0.758  -0.037  0.00  0.00     0.010 A 
ATOM      3  C3  <0> d           2.513   0.127  -0.021  0.00  0.00     0.014 A 
ATOM      4  C4  <0> d           2.388   1.534  -0.012  0.00  0.00    -0.069 A 
ATOM      5  C5  <0> d           1.161   2.109   0.002  0.00  0.00    -0.080 A 
ATOM      6  C6  <0> d          -0.016   1.361   0.009  0.00  0.00    -0.055 A 
ATOM      7  C7  <0> d           0.002  -0.004   0.002  0.00  0.00     0.057 A 
ATOM      8  C8  <0> d           1.291  -0.691  -0.014  0.00  0.00     0.115 A 
ATOM      9  N2  <0> d           1.674  -1.953  -0.025  0.00  0.00    -0.170 NA
ATOM     10  H4  <0> d           4.621  -0.495  -0.046  0.00  0.00     0.115 H 
ATOM     11  H5  <0> d           3.272   2.153  -0.017  0.00  0.00     0.085 H 
ATOM     12  H6  <0> d           1.092   3.187   0.008  0.00  0.00     0.083 H 
ATOM     13  H7  <0> d          -0.967   1.874   0.017  0.00  0.00     0.087 H 
ENDROOT
BRANCH   1  14
ATOM     14  C1  <0> d           3.871  -3.231  -0.055  0.00  0.00     0.002 C 
ATOM     15  H1  <0> d           4.079  -3.542   0.969  0.00  0.00     0.059 H 
ATOM     16  H2  <0> d           3.317  -4.018  -0.568  0.00  0.00     0.059 H 
ATOM     17  H3  <0> d           4.810  -3.048  -0.577  0.00  0.00     0.059 H 
ENDBRANCH   1  14
BRANCH   7  18
ATOM     18  N3  <0> d          -1.189  -0.730   0.010  0.00  0.00    -0.397 N 
ATOM     19  H8  <0> d          -2.040  -0.265   0.021  0.00  0.00     0.156 HD
ATOM     20  H9  <0> d          -1.166  -1.700   0.005  0.00  0.00     0.156 HD
ENDBRANCH   7  18
TORSDOF 2
