REMARK  0 active torsions:
REMARK  status: ('A' for Active; 'I' for Inactive)
ROOT
ATOM      1  C1  <0> d          -0.017   1.380   0.010  0.00  0.00    -0.045 A 
ATOM      2  C2  <0> d           1.171   2.083   0.002  0.00  0.00    -0.072 A 
ATOM      3  C3  <0> d           2.384   1.411  -0.012  0.00  0.00    -0.024 A 
ATOM      4  C4  <0> d           2.404   0.033  -0.016  0.00  0.00    -0.046 A 
ATOM      5  C5  <0> d           1.212  -0.674  -0.011  0.00  0.00    -0.039 A 
ATOM      6  C6  <0> d           0.002  -0.004   0.002  0.00  0.00     0.117 A 
ATOM      7  F1  <0> d          -1.157  -0.698   0.007  0.00  0.00    -0.206 F 
ATOM      8  C7  <0> d           3.698  -0.740  -0.018  0.00  0.00    -0.016 C 
ATOM      9  C8  <0> d           4.851   0.173  -0.436  0.00  0.00     0.115 C 
ATOM     10  N1  <0> d           4.795   1.397   0.378  0.00  0.00     0.087 N 
ATOM     11  C9  <0> d           3.653   2.224  -0.025  0.00  0.00     0.135 C 
ATOM     12  H1  <0> d          -0.958   1.909   0.026  0.00  0.00     0.088 H 
ATOM     13  H2  <0> d           1.155   3.163   0.006  0.00  0.00     0.084 H 
ATOM     14  H3  <0> d           1.227  -1.754  -0.018  0.00  0.00     0.089 H 
ATOM     15  H4  <0> d           3.889  -1.130   0.981  0.00  0.00     0.042 H 
ATOM     16  H5  <0> d           3.622  -1.571  -0.720  0.00  0.00     0.042 H 
ATOM     17  H6  <0> d           5.800  -0.336  -0.268  0.00  0.00     0.080 H 
ATOM     18  H7  <0> d           4.751   0.430  -1.491  0.00  0.00     0.080 H 
ATOM     19  H8  <0> d           4.753   1.176   1.362  0.00  0.00     0.316 HD
ATOM     20  H9  <0> d           3.824   2.609  -1.030  0.00  0.00     0.086 H 
ATOM     21  H10 <0> d           3.552   3.061   0.667  0.00  0.00     0.086 H 
ENDROOT
TORSDOF 0
