REMARK  4 active torsions:
REMARK  status: ('A' for Active; 'I' for Inactive)
REMARK    1  A    between atoms: C1_1  and  C2_2 
REMARK    2  A    between atoms: C2_2  and  C3_3 
REMARK    3  A    between atoms: C2_2  and  C4_4 
REMARK    4  A    between atoms: C9_10  and  O1_12 
ROOT
ATOM      1  C4  <0> d          -1.715   3.635   0.178  0.00  0.00    -0.026 C 
ATOM      2  H1  <0> d          -2.782   3.414   0.203  0.00  0.00     0.044 H 
ATOM      3  C5  <0> d          -1.074   2.926  -1.016  0.00  0.00    -0.059 C 
ATOM      4  C6  <0> d          -1.279   1.415  -0.882  0.00  0.00    -0.065 C 
ATOM      5  C7  <0> d          -0.627   0.925   0.413  0.00  0.00    -0.063 C 
ATOM      6  C8  <0> d          -1.268   1.635   1.607  0.00  0.00    -0.041 C 
ATOM      7  C9  <0> d          -1.063   3.146   1.473  0.00  0.00     0.039 C 
ATOM      8  H2  <0> d           0.004   3.367   1.449  0.00  0.00     0.083 H 
ATOM      9  H10 <0> d          -0.007   3.147  -1.040  0.00  0.00     0.033 H 
ATOM     10  H11 <0> d          -1.538   3.275  -1.938  0.00  0.00     0.033 H 
ATOM     11  H12 <0> d          -0.822   0.910  -1.732  0.00  0.00     0.033 H 
ATOM     12  H13 <0> d          -2.346   1.194  -0.858  0.00  0.00     0.033 H 
ATOM     13  H14 <0> d          -0.773  -0.150   0.509  0.00  0.00     0.033 H 
ATOM     14  H15 <0> d           0.440   1.147   0.389  0.00  0.00     0.033 H 
ATOM     15  H16 <0> d          -2.335   1.414   1.631  0.00  0.00     0.036 H 
ATOM     16  H17 <0> d          -0.804   1.286   2.529  0.00  0.00     0.036 H 
ENDROOT
BRANCH   1  17
ATOM     17  C2  <0> d          -1.510   5.146   0.044  0.00  0.00    -0.055 C 
ATOM     18  H6  <0> d          -1.901   5.646   0.930  0.00  0.00     0.039 H 
BRANCH  17  19
ATOM     19  C1  <0> d          -0.017   5.447  -0.095  0.00  0.00    -0.073 C 
ATOM     20  H3  <0> d           0.129   6.524  -0.190  0.00  0.00     0.028 H 
ATOM     21  H4  <0> d           0.510   5.087   0.788  0.00  0.00     0.028 H 
ATOM     22  H5  <0> d           0.374   4.948  -0.981  0.00  0.00     0.028 H 
ENDBRANCH  17  19
BRANCH  17  23
ATOM     23  C3  <0> d          -2.250   5.653  -1.195  0.00  0.00    -0.073 C 
ATOM     24  H7  <0> d          -3.296   5.350  -1.143  0.00  0.00     0.028 H 
ATOM     25  H8  <0> d          -2.189   6.740  -1.236  0.00  0.00     0.028 H 
ATOM     26  H9  <0> d          -1.794   5.229  -2.090  0.00  0.00     0.028 H 
ENDBRANCH  17  23
ENDBRANCH   1  17
BRANCH   7  27
ATOM     27  O1  <0> d          -1.662   3.808   2.588  0.00  0.00    -0.395 OA
ATOM     28  H18 <0> d          -1.297   3.546   3.444  0.00  0.00     0.210 HD
ENDBRANCH   7  27
TORSDOF 4
