REMARK  3 active torsions:
REMARK  status: ('A' for Active; 'I' for Inactive)
REMARK    1  A    between atoms: C2_2  and  C3_3 
REMARK    2  A    between atoms: C3_3  and  C4_4 
REMARK    3  A    between atoms: C9_10  and  O1_12 
ROOT
ATOM      1  C4  <0> d           1.370  -1.717   1.161  0.00  0.00    -0.026 C 
ATOM      2  H1  <0> d           1.185  -1.178   2.091  0.00  0.00     0.044 H 
ATOM      3  C5  <0> d           0.300  -2.796   0.976  0.00  0.00    -0.059 C 
ATOM      4  C6  <0> d           0.353  -3.773   2.152  0.00  0.00    -0.065 C 
ATOM      5  C7  <0> d           1.734  -4.429   2.209  0.00  0.00    -0.063 C 
ATOM      6  C8  <0> d           2.803  -3.350   2.394  0.00  0.00    -0.041 C 
ATOM      7  C9  <0> d           2.751  -2.373   1.218  0.00  0.00     0.039 C 
ATOM      8  H2  <0> d           3.513  -1.605   1.350  0.00  0.00     0.083 H 
ATOM      9  H8  <0> d          -0.684  -2.328   0.936  0.00  0.00     0.033 H 
ATOM     10  H9  <0> d           0.485  -3.335   0.047  0.00  0.00     0.033 H 
ATOM     11  H10 <0> d           0.168  -3.234   3.081  0.00  0.00     0.033 H 
ATOM     12  H11 <0> d          -0.409  -4.541   2.020  0.00  0.00     0.033 H 
ATOM     13  H12 <0> d           1.771  -5.125   3.047  0.00  0.00     0.033 H 
ATOM     14  H13 <0> d           1.919  -4.968   1.280  0.00  0.00     0.033 H 
ATOM     15  H14 <0> d           2.619  -2.811   3.323  0.00  0.00     0.036 H 
ATOM     16  H15 <0> d           3.787  -3.817   2.435  0.00  0.00     0.036 H 
ENDROOT
BRANCH   1  17
ATOM     17  C3  <0> d           1.317  -0.740  -0.015  0.00  0.00    -0.045 C 
ATOM     18  H6  <0> d           1.413  -1.291  -0.950  0.00  0.00     0.039 H 
ATOM     19  H7  <0> d           2.135  -0.024   0.071  0.00  0.00     0.039 H 
BRANCH  17  20
ATOM     20  C2  <0> d           0.002  -0.004   0.002  0.00  0.00    -0.112 C 
ATOM     21  C1  <0> d          -0.016   1.306   0.009  0.00  0.00    -0.125 C 
ATOM     22  H3  <0> d           0.912   1.859   0.003  0.00  0.00     0.066 H 
ATOM     23  H4  <0> d          -0.958   1.833   0.017  0.00  0.00     0.066 H 
ATOM     24  H5  <0> d          -0.926  -0.557   0.008  0.00  0.00     0.075 H 
ENDBRANCH  17  20
ENDBRANCH   1  17
BRANCH   7  25
ATOM     25  O1  <0> d           2.993  -3.080   0.000  0.00  0.00    -0.395 OA
ATOM     26  H16 <0> d           3.853  -3.521  -0.034  0.00  0.00     0.210 HD
ENDBRANCH   7  25
TORSDOF 3
