REMARK  4 active torsions:
REMARK  status: ('A' for Active; 'I' for Inactive)
REMARK    1  A    between atoms: C1_1  and  C2_2 
REMARK    2  A    between atoms: C2_2  and  C3_4 
REMARK    3  A    between atoms: C2_2  and  C4_6 
REMARK    4  A    between atoms: C3_4  and  O1_5 
ROOT
ATOM      1  C4  <0> d           0.731  -0.503   1.223  0.00  0.00    -0.052 A 
ATOM      2  C5  <0> d           2.050  -0.148   1.434  0.00  0.00    -0.076 A 
ATOM      3  C6  <0> d           2.719  -0.606   2.554  0.00  0.00    -0.082 A 
ATOM      4  C7  <0> d           2.068  -1.419   3.463  0.00  0.00    -0.083 A 
ATOM      5  C8  <0> d           0.749  -1.773   3.252  0.00  0.00    -0.082 A 
ATOM      6  C9  <0> d           0.079  -1.312   2.135  0.00  0.00    -0.076 A 
ATOM      7  H8  <0> d           2.558   0.487   0.724  0.00  0.00     0.084 H 
ATOM      8  H9  <0> d           3.749  -0.329   2.718  0.00  0.00     0.083 H 
ATOM      9  H10 <0> d           2.591  -1.777   4.338  0.00  0.00     0.083 H 
ATOM     10  H11 <0> d           0.240  -2.409   3.963  0.00  0.00     0.083 H 
ATOM     11  H12 <0> d          -0.953  -1.586   1.972  0.00  0.00     0.084 H 
ENDROOT
BRANCH   1  12
ATOM     12  C2  <0> d           0.002  -0.004   0.002  0.00  0.00    -0.012 C 
ATOM     13  H1  <0> d          -1.020  -0.381   0.010  0.00  0.00     0.050 H 
BRANCH  12  14
ATOM     14  C1  <0> d          -0.019   1.526   0.010  0.00  0.00    -0.067 C 
ATOM     15  H2  <0> d           1.004   1.903   0.003  0.00  0.00     0.028 H 
ATOM     16  H3  <0> d          -0.546   1.887  -0.873  0.00  0.00     0.028 H 
ATOM     17  H4  <0> d          -0.529   1.877   0.907  0.00  0.00     0.028 H 
ENDBRANCH  12  14
BRANCH  12  18
ATOM     18  C3  <0> d           0.718  -0.497  -1.257  0.00  0.00     0.024 C 
ATOM     19  H5  <0> d           1.710  -0.049  -1.310  0.00  0.00     0.075 H 
ATOM     20  H6  <0> d           0.812  -1.583  -1.220  0.00  0.00     0.075 H 
BRANCH  18  21
ATOM     21  O1  <0> d          -0.036  -0.123  -2.412  0.00  0.00    -0.400 OA
ATOM     22  H7  <0> d           0.360  -0.404  -3.248  0.00  0.00     0.209 HD
ENDBRANCH  18  21
ENDBRANCH  12  18
ENDBRANCH   1  12
TORSDOF 4
