REMARK  3 active torsions:
REMARK  status: ('A' for Active; 'I' for Inactive)
REMARK    1  A    between atoms: C1_1  and  C2_2 
REMARK       I    between atoms: C2_2  and  N1_4 
REMARK    2  A    between atoms: N1_4  and  C3_5 
REMARK    3  A    between atoms: C3_5  and  C4_6 
ROOT
ATOM      1  C2  <0> d          -0.014   1.209   0.009  0.00  0.00     0.213 C 
ATOM      2  O1  <0> d           0.002  -0.004   0.002  0.00  0.00    -0.274 OA
ATOM      3  N1  <0> d           1.143   1.898   0.001  0.00  0.00    -0.358 N 
ATOM      4  H4  <0> d           1.130   2.868   0.007  0.00  0.00     0.162 HD
ENDROOT
BRANCH   3   5
ATOM      5  C3  <0> d           2.422   1.183  -0.015  0.00  0.00     0.009 C 
ATOM      6  H5  <0> d           2.497   0.553   0.871  0.00  0.00     0.070 H 
ATOM      7  H6  <0> d           2.480   0.562  -0.909  0.00  0.00     0.070 H 
BRANCH   5   8
ATOM      8  C4  <0> d           3.554   2.178  -0.020  0.00  0.00    -0.095 C 
ATOM      9  C5  <0> d           4.484   2.116   0.900  0.00  0.00    -0.123 C 
ATOM     10  H8  <0> d           4.440   1.353   1.663  0.00  0.00     0.066 H 
ATOM     11  H9  <0> d           5.296   2.829   0.896  0.00  0.00     0.066 H 
ATOM     12  H7  <0> d           3.598   2.942  -0.783  0.00  0.00     0.078 H 
ENDBRANCH   5   8
ENDBRANCH   3   5
BRANCH   1  13
ATOM     13  C1  <0> d          -1.330   1.944   0.019  0.00  0.00    -0.003 C 
ATOM     14  H1  <0> d          -2.148   1.225   0.019  0.00  0.00     0.040 H 
ATOM     15  H2  <0> d          -1.392   2.565   0.913  0.00  0.00     0.040 H 
ATOM     16  H3  <0> d          -1.400   2.575  -0.867  0.00  0.00     0.040 H 
ENDBRANCH   1  13
TORSDOF 3
