REMARK  6 active torsions:
REMARK  status: ('A' for Active; 'I' for Inactive)
REMARK    1  A    between atoms: C1_1  and  C2_2 
REMARK    2  A    between atoms: C2_2  and  O1_3 
REMARK    3  A    between atoms: O1_3  and  C3_4 
REMARK    4  A    between atoms: C3_4  and  C4_6 
REMARK    5  A    between atoms: C3_4  and  N1_7 
REMARK    6  A    between atoms: C8_11  and  C9_12 
ROOT
ATOM      1  C3  <0> d          -0.068   1.127   2.404  0.00  0.00     0.105 C 
ATOM      2  H1  <0> d           1.005   1.013   2.251  0.00  0.00     0.117 H 
ENDROOT
BRANCH   1   3
ATOM      3  O1  <0> d          -0.682   1.547   1.184  0.00  0.00    -0.367 OA
BRANCH   3   4
ATOM      4  C2  <0> d          -0.013   1.086   0.008  0.00  0.00     0.019 C 
ATOM      5  H5  <0> d           0.002  -0.004   0.002  0.00  0.00     0.073 H 
ATOM      6  H6  <0> d           1.010   1.463   0.000  0.00  0.00     0.073 H 
BRANCH   4   7
ATOM      7  C1  <0> d          -0.753   1.593  -1.232  0.00  0.00    -0.056 C 
ATOM      8  H2  <0> d          -1.775   1.215  -1.224  0.00  0.00     0.030 H 
ATOM      9  H3  <0> d          -0.767   2.683  -1.226  0.00  0.00     0.030 H 
ATOM     10  H4  <0> d          -0.242   1.241  -2.128  0.00  0.00     0.030 H 
ENDBRANCH   4   7
ENDBRANCH   3   4
ENDBRANCH   1   3
BRANCH   1  11
ATOM     11  C4  <0> d          -0.666  -0.212   2.841  0.00  0.00    -0.036 C 
ATOM     12  H7  <0> d          -0.486  -0.960   2.068  0.00  0.00     0.033 H 
ATOM     13  H8  <0> d          -0.198  -0.533   3.772  0.00  0.00     0.033 H 
ATOM     14  H9  <0> d          -1.739  -0.098   2.994  0.00  0.00     0.033 H 
ENDBRANCH   1  11
BRANCH   1  15
ATOM     15  N1  <0> d          -0.309   2.131   3.443  0.00  0.00    -0.334 N 
ATOM     16  C8  <0> d           0.471   2.340   4.542  0.00  0.00     0.010 A 
ATOM     17  C7  <0> d          -0.072   3.345   5.259  0.00  0.00    -0.060 A 
ATOM     18  C6  <0> d          -1.230   3.771   4.578  0.00  0.00    -0.066 A 
ATOM     19  H12 <0> d           0.310   3.748   6.185  0.00  0.00     0.086 H 
ATOM     20  C5  <0> d          -1.346   3.015   3.467  0.00  0.00    -0.018 A 
ATOM     21  H11 <0> d          -1.898   4.562   4.886  0.00  0.00     0.085 H 
ATOM     22  H10 <0> d          -2.128   3.095   2.727  0.00  0.00     0.111 H 
BRANCH  16  23
ATOM     23  C9  <0> d           1.723   1.579   4.894  0.00  0.00    -0.037 C 
ATOM     24  H13 <0> d           2.587   2.076   4.451  0.00  0.00     0.035 H 
ATOM     25  H14 <0> d           1.837   1.550   5.978  0.00  0.00     0.035 H 
ATOM     26  H15 <0> d           1.651   0.563   4.508  0.00  0.00     0.035 H 
ENDBRANCH  16  23
ENDBRANCH   1  15
TORSDOF 6
