REMARK  6 active torsions:
REMARK  status: ('A' for Active; 'I' for Inactive)
REMARK    1  A    between atoms: C1_1  and  C2_2 
REMARK    2  A    between atoms: C2_2  and  C3_3 
REMARK    3  A    between atoms: C4_4  and  C10_12 
REMARK    4  A    between atoms: C5_7  and  C9_11 
REMARK    5  A    between atoms: C6_8  and  C7_9 
REMARK    6  A    between atoms: C7_9  and  C8_10 
ROOT
ATOM      1  C3  <0> d          -1.412  -0.526   0.013  0.00  0.00    -0.028 A 
ATOM      2  C4  <0> d          -2.152  -0.802   1.105  0.00  0.00     0.012 A 
ATOM      3  N1  <0> d          -3.371  -1.251   0.692  0.00  0.00    -0.363 N 
ATOM      4  H1  <0> d          -4.101  -1.521   1.271  0.00  0.00     0.165 HD
ATOM      5  C5  <0> d          -3.397  -1.256  -0.672  0.00  0.00     0.012 A 
ATOM      6  C6  <0> d          -2.205  -0.808  -1.117  0.00  0.00    -0.028 A 
ENDROOT
BRANCH   1   7
ATOM      7  C2  <0> d           0.002  -0.004   0.002  0.00  0.00    -0.042 C 
ATOM      8  H5  <0> d           0.512  -0.356  -0.895  0.00  0.00     0.039 H 
ATOM      9  H6  <0> d           0.529  -0.365   0.885  0.00  0.00     0.039 H 
BRANCH   7  10
ATOM     10  C1  <0> d          -0.019   1.526   0.010  0.00  0.00    -0.073 C 
ATOM     11  H2  <0> d           1.004   1.903   0.003  0.00  0.00     0.028 H 
ATOM     12  H3  <0> d          -0.546   1.887  -0.873  0.00  0.00     0.028 H 
ATOM     13  H4  <0> d          -0.529   1.877   0.907  0.00  0.00     0.028 H 
ENDBRANCH   7  10
ENDBRANCH   1   7
BRANCH   6  14
ATOM     14  C7  <0> d          -1.796  -0.644  -2.558  0.00  0.00    -0.042 C 
ATOM     15  H7  <0> d          -2.674  -0.415  -3.161  0.00  0.00     0.039 H 
ATOM     16  H8  <0> d          -1.075   0.170  -2.641  0.00  0.00     0.039 H 
BRANCH  14  17
ATOM     17  C8  <0> d          -1.158  -1.942  -3.058  0.00  0.00    -0.073 C 
ATOM     18  H9  <0> d          -0.279  -2.171  -2.454  0.00  0.00     0.028 H 
ATOM     19  H10 <0> d          -1.878  -2.756  -2.975  0.00  0.00     0.028 H 
ATOM     20  H11 <0> d          -0.862  -1.824  -4.100  0.00  0.00     0.028 H 
ENDBRANCH  14  17
ENDBRANCH   6  14
BRANCH   2  21
ATOM     21  C10 <0> d          -1.709  -0.643   2.537  0.00  0.00    -0.037 C 
ATOM     22  H15 <0> d          -1.957   0.359   2.885  0.00  0.00     0.035 H 
ATOM     23  H16 <0> d          -2.217  -1.380   3.159  0.00  0.00     0.035 H 
ATOM     24  H17 <0> d          -0.631  -0.793   2.602  0.00  0.00     0.035 H 
ENDBRANCH   2  21
BRANCH   5  25
ATOM     25  C9  <0> d          -4.558  -1.682  -1.532  0.00  0.00    -0.037 C 
ATOM     26  H12 <0> d          -5.194  -0.820  -1.737  0.00  0.00     0.035 H 
ATOM     27  H13 <0> d          -4.184  -2.089  -2.472  0.00  0.00     0.035 H 
ATOM     28  H14 <0> d          -5.136  -2.444  -1.011  0.00  0.00     0.035 H 
ENDBRANCH   5  25
TORSDOF 6
