REMARK  5 active torsions:
REMARK  status: ('A' for Active; 'I' for Inactive)
REMARK    1  A    between atoms: C1_1  and  C2_2 
REMARK    2  A    between atoms: C2_2  and  C3_3 
REMARK    3  A    between atoms: C4_5  and  N4_11 
REMARK    4  A    between atoms: C5_7  and  O1_9 
REMARK    5  A    between atoms: O1_9  and  C6_10 
ROOT
ATOM      1  C3  <0> d          -0.749   3.086   1.275  0.00  0.00     0.149 A 
ATOM      2  N1  <0> d           0.236   3.756   1.847  0.00  0.00    -0.048 NA
ATOM      3  C4  <0> d           0.223   5.086   1.851  0.00  0.00     0.725 A 
ATOM      4  N2  <0> d          -0.788   5.740   1.289  0.00  0.00    -0.019 NA
ATOM      5  C5  <0> d          -1.778   5.064   0.721  0.00  0.00     0.286 A 
ATOM      6  N3  <0> d          -1.756   3.735   0.715  0.00  0.00    -0.191 NA
ENDROOT
BRANCH   1   7
ATOM      7  C2  <0> d          -0.729   1.579   1.267  0.00  0.00    -0.011 C 
ATOM      8  H4  <0> d          -1.751   1.202   1.275  0.00  0.00     0.044 H 
ATOM      9  H5  <0> d          -0.202   1.218   2.150  0.00  0.00     0.044 H 
BRANCH   7  10
ATOM     10  C1  <0> d          -0.013   1.086   0.008  0.00  0.00    -0.070 C 
ATOM     11  H1  <0> d           0.002  -0.004   0.002  0.00  0.00     0.028 H 
ATOM     12  H2  <0> d           1.010   1.463   0.000  0.00  0.00     0.028 H 
ATOM     13  H3  <0> d          -0.540   1.447  -0.875  0.00  0.00     0.028 H 
ENDBRANCH   7  10
ENDBRANCH   1   7
BRANCH   5  14
ATOM     14  O1  <0> d          -2.808   5.726   0.147  0.00  0.00    -0.324 OA
BRANCH  14  15
ATOM     15  C6  <0> d          -2.767   7.154   0.190  0.00  0.00     0.013 C 
ATOM     16  H6  <0> d          -2.747   7.486   1.228  0.00  0.00     0.067 H 
ATOM     17  H7  <0> d          -1.871   7.507  -0.321  0.00  0.00     0.067 H 
ATOM     18  H8  <0> d          -3.650   7.559  -0.304  0.00  0.00     0.067 H 
ENDBRANCH  14  15
ENDBRANCH   5  14
BRANCH   3  19
ATOM     19  N4  <0> d           1.255   5.785   2.443  0.00  0.00    -0.231 N 
ATOM     20  H9  <0> d           1.243   6.755   2.449  0.00  0.00     0.174 HD
ATOM     21  H10 <0> d           1.992   5.307   2.853  0.00  0.00     0.174 HD
ENDBRANCH   3  19
TORSDOF 5
