REMARK  1 active torsions:
REMARK  status: ('A' for Active; 'I' for Inactive)
REMARK    1  A    between atoms: C3_3  and  N2_9 
ROOT
ATOM      1  C1  <0> d           2.397   0.016  -0.021  0.00  0.00     0.000 A 
ATOM      2  C2  <0> d           1.209  -0.697  -0.013  0.00  0.00     0.164 A 
ATOM      3  C3  <0> d           0.002  -0.004   0.002  0.00  0.00     0.163 A 
ATOM      4  N1  <0> d          -0.016   1.320   0.009  0.00  0.00    -0.197 NA
ATOM      5  C4  <0> d           1.099   2.028   0.003  0.00  0.00     0.250 A 
ATOM      6  C5  <0> d           2.336   1.404  -0.013  0.00  0.00     0.177 A 
ATOM      7  F1  <0> d           3.471   2.137  -0.019  0.00  0.00    -0.201 F 
ATOM      8  F2  <0> d           1.033   3.377   0.010  0.00  0.00    -0.181 F 
ATOM      9  F3  <0> d           1.222  -2.048  -0.020  0.00  0.00    -0.202 F 
ATOM     10  H1  <0> d           3.348  -0.495  -0.032  0.00  0.00     0.093 H 
ENDROOT
BRANCH   3  11
ATOM     11  N2  <0> d          -1.199  -0.710   0.010  0.00  0.00    -0.381 N 
ATOM     12  H2  <0> d          -2.155  -0.168   0.022  0.00  0.00     0.157 HD
ATOM     13  H3  <0> d          -1.190  -1.810   0.005  0.00  0.00     0.157 HD
ENDBRANCH   3  11
TORSDOF 1
