REMARK  8 active torsions:
REMARK  status: ('A' for Active; 'I' for Inactive)
REMARK    1  A    between atoms: C1_1  and  C2_2 
REMARK    2  A    between atoms: C2_2  and  C3_3 
REMARK    3  A    between atoms: C3_3  and  C4_4 
REMARK    4  A    between atoms: C4_4  and  C5_6 
REMARK    5  A    between atoms: C4_4  and  C8_11 
REMARK    6  A    between atoms: C5_6  and  C6_8 
REMARK    7  A    between atoms: C5_6  and  O1_10 
REMARK    8  A    between atoms: C6_8  and  C7_9 
ROOT
ATOM      1  C4  <0> d          -0.757   1.660   1.424  0.00  0.00     0.055 C 
ATOM      2  H1  <0> d          -0.645   2.618   1.932  0.00  0.00     0.060 H 
ENDROOT
BRANCH   1   3
ATOM      3  C3  <0> d          -0.347   1.810  -0.043  0.00  0.00    -0.050 C 
ATOM      4  H8  <0> d          -0.543   0.877  -0.572  0.00  0.00     0.034 H 
ATOM      5  H9  <0> d           0.715   2.044  -0.101  0.00  0.00     0.034 H 
BRANCH   3   6
ATOM      6  C2  <0> d          -1.155   2.939  -0.685  0.00  0.00    -0.068 C 
ATOM      7  H6  <0> d          -2.218   2.705  -0.627  0.00  0.00     0.032 H 
ATOM      8  H7  <0> d          -0.959   3.872  -0.156  0.00  0.00     0.032 H 
BRANCH   6   9
ATOM      9  C1  <0> d          -0.746   3.089  -2.152  0.00  0.00    -0.076 C 
ATOM     10  H3  <0> d          -0.941   2.156  -2.681  0.00  0.00     0.027 H 
ATOM     11  H4  <0> d          -1.321   3.894  -2.609  0.00  0.00     0.027 H 
ATOM     12  H5  <0> d           0.317   3.324  -2.210  0.00  0.00     0.027 H 
ENDBRANCH   6   9
ENDBRANCH   3   6
ENDBRANCH   1   3
BRANCH   1  13
ATOM     13  C5  <0> d           0.136   0.617   2.099  0.00  0.00     0.048 C 
ATOM     14  H2  <0> d          -0.216   0.440   3.115  0.00  0.00     0.084 H 
BRANCH  13  15
ATOM     15  C6  <0> d           1.577   1.130   2.140  0.00  0.00    -0.044 C 
ATOM     16  H10 <0> d           1.962   1.215   1.124  0.00  0.00     0.036 H 
ATOM     17  H11 <0> d           1.601   2.108   2.621  0.00  0.00     0.036 H 
BRANCH  15  18
ATOM     18  C7  <0> d           2.444   0.150   2.934  0.00  0.00    -0.074 C 
ATOM     19  H12 <0> d           2.059   0.065   3.950  0.00  0.00     0.027 H 
ATOM     20  H13 <0> d           2.420  -0.828   2.453  0.00  0.00     0.027 H 
ATOM     21  H14 <0> d           3.471   0.515   2.964  0.00  0.00     0.027 H 
ENDBRANCH  15  18
ENDBRANCH  13  15
BRANCH  13  22
ATOM     22  O1  <0> d           0.086  -0.604   1.358  0.00  0.00    -0.395 OA
ATOM     23  H15 <0> d           0.386  -0.521   0.443  0.00  0.00     0.210 HD
ENDBRANCH  13  22
ENDBRANCH   1  13
BRANCH   1  24
ATOM     24  C8  <0> d          -2.195   1.216   1.501  0.00  0.00     0.179 C 
ATOM     25  O2  <0> d          -2.646   0.480   0.656  0.00  0.00    -0.648 OA
ATOM     26  O3  <0> d          -2.975   1.638   2.509  0.00  0.00    -0.648 OA
ENDBRANCH   1  24
TORSDOF 8
