REMARK  4 active torsions:
REMARK  status: ('A' for Active; 'I' for Inactive)
REMARK    1  A    between atoms: C1_1  and  C2_2 
REMARK    2  A    between atoms: C2_2  and  C3_3 
REMARK    3  A    between atoms: C3_3  and  C4_4 
REMARK    4  A    between atoms: C6_8  and  C7_11 
ROOT
ATOM      1  C4  <0> d          -2.880   1.543   2.537  0.00  0.00     0.131 C 
ATOM      2  H1  <0> d          -2.813   2.630   2.594  0.00  0.00     0.129 H 
ATOM      3  O1  <0> d          -2.268   0.962   3.700  0.00  0.00    -0.359 OA
ATOM      4  C5  <0> d          -3.362   0.731   4.618  0.00  0.00     0.046 C 
ATOM      5  C6  <0> d          -4.503   0.325   3.652  0.00  0.00     0.058 C 
ATOM      6  H2  <0> d          -4.436  -0.733   3.395  0.00  0.00     0.086 H 
ATOM      7  O2  <0> d          -4.258   1.147   2.494  0.00  0.00    -0.354 OA
ATOM      8  H10 <0> d          -3.616   1.641   5.161  0.00  0.00     0.078 H 
ATOM      9  H11 <0> d          -3.128  -0.080   5.308  0.00  0.00     0.078 H 
ENDROOT
BRANCH   1  10
ATOM     10  C3  <0> d          -2.164   1.050   1.278  0.00  0.00    -0.019 C 
ATOM     11  H8  <0> d          -2.691   1.411   0.395  0.00  0.00     0.040 H 
ATOM     12  H9  <0> d          -2.149  -0.040   1.272  0.00  0.00     0.040 H 
BRANCH  10  13
ATOM     13  C2  <0> d          -0.729   1.579   1.267  0.00  0.00    -0.064 C 
ATOM     14  H6  <0> d          -0.202   1.218   2.150  0.00  0.00     0.032 H 
ATOM     15  H7  <0> d          -0.744   2.669   1.273  0.00  0.00     0.032 H 
BRANCH  13  16
ATOM     16  C1  <0> d          -0.013   1.086   0.008  0.00  0.00    -0.076 C 
ATOM     17  H3  <0> d           0.002  -0.004   0.002  0.00  0.00     0.027 H 
ATOM     18  H4  <0> d           1.010   1.463   0.000  0.00  0.00     0.027 H 
ATOM     19  H5  <0> d          -0.540   1.447  -0.875  0.00  0.00     0.027 H 
ENDBRANCH  13  16
ENDBRANCH  10  13
ENDBRANCH   1  10
BRANCH   5  20
ATOM     20  C7  <0> d          -5.869   0.645   4.263  0.00  0.00    -0.050 C 
ATOM     21  H12 <0> d          -6.652   0.433   3.535  0.00  0.00     0.031 H 
ATOM     22  H13 <0> d          -6.023   0.032   5.151  0.00  0.00     0.031 H 
ATOM     23  H14 <0> d          -5.905   1.699   4.539  0.00  0.00     0.031 H 
ENDBRANCH   5  20
TORSDOF 4
