REMARK  0 active torsions:
REMARK  status: ('A' for Active; 'I' for Inactive)
ROOT
ATOM      1  C1  <0> d          -0.721   1.576   1.289  0.00  0.00    -0.032 C 
ATOM      2  C2  <0> d          -0.013   1.086   0.008  0.00  0.00     0.036 C 
ATOM      3  O1  <0> d          -0.692   1.554  -1.163  0.00  0.00    -0.296 OA
ATOM      4  S1  <0> d          -2.188   1.710  -0.840  0.00  0.00     0.152 S 
ATOM      5  O2  <0> d          -2.806   0.646  -1.552  0.00  0.00    -0.229 OA
ATOM      6  C3  <0> d          -2.227   1.347   0.961  0.00  0.00     0.030 C 
ATOM      7  H1  <0> d          -0.419   0.980   2.150  0.00  0.00     0.037 H 
ATOM      8  H2  <0> d          -0.519   2.634   1.461  0.00  0.00     0.037 H 
ATOM      9  H3  <0> d           0.002  -0.004   0.002  0.00  0.00     0.076 H 
ATOM     10  H4  <0> d           1.012   1.458   0.000  0.00  0.00     0.076 H 
ATOM     11  H5  <0> d          -2.864   2.051   1.496  0.00  0.00     0.056 H 
ATOM     12  H6  <0> d          -2.526   0.317   1.154  0.00  0.00     0.056 H 
ENDROOT
TORSDOF 0
