REMARK  0 active torsions:
REMARK  status: ('A' for Active; 'I' for Inactive)
ROOT
ATOM      1  C1  <0> d           3.267   2.941  -0.014  0.00  0.00    -0.060 A 
ATOM      2  C2  <0> d           1.913   2.930  -0.001  0.00  0.00    -0.049 A 
ATOM      3  C3  <0> d           1.216   1.655  -0.001  0.00  0.00     0.117 A 
ATOM      4  C4  <0> d           2.019   0.406  -0.015  0.00  0.00     0.118 A 
ATOM      5  C5  <0> d           3.421   0.504  -0.028  0.00  0.00    -0.030 A 
ATOM      6  C6  <0> d           4.019   1.746  -0.028  0.00  0.00     0.047 A 
ATOM      7  C7  <0> d           5.449   1.826  -0.042  0.00  0.00     0.099 C 
ATOM      8  N1  <0> d           6.583   1.890  -0.053  0.00  0.00    -0.191 NA
ATOM      9  N2  <0> d           1.098  -0.527  -0.011  0.00  0.00    -0.103 NA
ATOM     10  O1  <0> d           0.002  -0.004   0.002  0.00  0.00    -0.106 OA
ATOM     11  N3  <0> d          -0.014   1.211   0.009  0.00  0.00    -0.103 NA
ATOM     12  H1  <0> d           3.785   3.888  -0.015  0.00  0.00     0.086 H 
ATOM     13  H2  <0> d           1.359   3.857   0.010  0.00  0.00     0.087 H 
ATOM     14  H3  <0> d           4.027  -0.390  -0.038  0.00  0.00     0.089 H 
ENDROOT
TORSDOF 0
