REMARK  2 active torsions:
REMARK  status: ('A' for Active; 'I' for Inactive)
REMARK    1  A    between atoms: C3_3  and  C7_9 
REMARK    2  A    between atoms: C5_5  and  O1_7 
ROOT
ATOM      1  C1  <0> d           0.116   5.191   0.029  0.00  0.00    -0.079 A 
ATOM      2  C2  <0> d           0.058   3.813   0.022  0.00  0.00    -0.063 A 
ATOM      3  C3  <0> d           1.238   3.065   0.007  0.00  0.00     0.082 A 
ATOM      4  C4  <0> d           2.473   3.720   0.004  0.00  0.00     0.166 A 
ATOM      5  C5  <0> d           2.517   5.107   0.006  0.00  0.00     0.105 A 
ATOM      6  C6  <0> d           1.339   5.838   0.021  0.00  0.00    -0.048 A 
ATOM      7  F1  <0> d           3.620   3.005  -0.005  0.00  0.00    -0.202 F 
ATOM      8  H1  <0> d          -0.798   5.767   0.041  0.00  0.00     0.083 H 
ATOM      9  H2  <0> d          -0.899   3.313   0.028  0.00  0.00     0.085 H 
ATOM     10  H3  <0> d           1.376   6.918   0.027  0.00  0.00     0.087 H 
ENDROOT
BRANCH   3  11
ATOM     11  C7  <0> d           1.181   1.591  -0.001  0.00  0.00     0.212 C 
ATOM     12  O2  <0> d           2.209   0.943  -0.014  0.00  0.00    -0.644 OA
ATOM     13  O3  <0> d          -0.011   0.963   0.007  0.00  0.00    -0.644 OA
ENDBRANCH   3  11
BRANCH   5  14
ATOM     14  O1  <0> d           3.715   5.749  -0.002  0.00  0.00    -0.358 OA
ATOM     15  H4  <0> d           4.070   5.931   0.879  0.00  0.00     0.217 HD
ENDBRANCH   5  14
TORSDOF 2
