REMARK  4 active torsions:
REMARK  status: ('A' for Active; 'I' for Inactive)
REMARK    1  A    between atoms: C1_1  and  C2_2 
REMARK    2  A    between atoms: C2_2  and  C3_4 
REMARK    3  A    between atoms: C2_2  and  O1_11 
REMARK    4  A    between atoms: C7_9  and  N2_10 
ROOT
ATOM      1  C3  <0> d           2.361  -0.018  -0.021  0.00  0.00     0.015 A 
ATOM      2  C4  <0> d           2.373   1.365  -0.014  0.00  0.00    -0.069 A 
ATOM      3  C5  <0> d           1.160   2.039   0.002  0.00  0.00    -0.065 A 
ATOM      4  C6  <0> d          -0.016   1.315   0.009  0.00  0.00     0.004 A 
ATOM      5  N1  <0> d           0.002  -0.004   0.002  0.00  0.00    -0.243 NA
ATOM      6  C7  <0> d           1.139  -0.683  -0.013  0.00  0.00     0.129 A 
ATOM      7  H5  <0> d           3.307   1.909  -0.021  0.00  0.00     0.084 H 
ATOM      8  H6  <0> d           1.135   3.119   0.008  0.00  0.00     0.085 H 
ATOM      9  H7  <0> d          -0.962   1.835   0.017  0.00  0.00     0.114 H 
ENDROOT
BRANCH   1  10
ATOM     10  C2  <0> d           3.652  -0.794  -0.039  0.00  0.00     0.061 C 
ATOM     11  H1  <0> d           3.559  -1.680  -0.683  0.00  0.00     0.090 H 
BRANCH  10  12
ATOM     12  C1  <0> d           4.040  -1.172   1.392  0.00  0.00    -0.049 C 
ATOM     13  H2  <0> d           4.982  -1.738   1.379  0.00  0.00     0.031 H 
ATOM     14  H3  <0> d           3.246  -1.792   1.835  0.00  0.00     0.031 H 
ATOM     15  H4  <0> d           4.168  -0.258   1.991  0.00  0.00     0.031 H 
ENDBRANCH  10  12
BRANCH  10  16
ATOM     16  O1  <0> d           4.684   0.011  -0.614  0.00  0.00    -0.391 OA
ATOM     17  H10 <0> d           4.582   0.381  -1.645  0.00  0.00     0.210 HD
ENDBRANCH  10  16
ENDBRANCH   1  10
BRANCH   6  18
ATOM     18  N2  <0> d           1.111  -2.073  -0.020  0.00  0.00    -0.384 N 
ATOM     19  H8  <0> d           0.148  -2.604  -0.013  0.00  0.00     0.157 HD
ATOM     20  H9  <0> d           2.053  -2.642  -0.032  0.00  0.00     0.157 HD
ENDBRANCH   6  18
TORSDOF 4
