REMARK  2 active torsions:
REMARK  status: ('A' for Active; 'I' for Inactive)
REMARK    1  A    between atoms: C1_1  and  O1_2 
REMARK    2  A    between atoms: O1_2  and  C2_3 
ROOT
ATOM      1  C2  <0> d          -1.183   3.247   0.029  0.00  0.00     0.271 A 
ATOM      2  N1  <0> d          -1.185   1.889   0.018  0.00  0.00    -0.165 NA
ATOM      3  C3  <0> d          -0.015   1.216   0.009  0.00  0.00     0.310 A 
ATOM      4  O2  <0> d           0.002  -0.004   0.002  0.00  0.00    -0.263 OA
ATOM      5  C4  <0> d           1.187   1.951   0.001  0.00  0.00     0.203 A 
ATOM      6  C5  <0> d           1.125   3.314   0.009  0.00  0.00     0.049 A 
ATOM      7  N2  <0> d          -0.059   3.928   0.022  0.00  0.00    -0.216 NA
ATOM      8  F1  <0> d           2.381   1.317  -0.014  0.00  0.00    -0.199 F 
ATOM      9  H4  <0> d           2.034   3.896   0.003  0.00  0.00     0.120 H 
ENDROOT
BRANCH   1  10
ATOM     10  O1  <0> d          -2.358   3.911   0.043  0.00  0.00    -0.324 OA
BRANCH  10  11
ATOM     11  C1  <0> d          -2.297   5.338   0.049  0.00  0.00     0.013 C 
ATOM     12  H1  <0> d          -3.317   5.749   0.059  0.00  0.00     0.067 H 
ATOM     13  H2  <0> d          -1.771   5.686  -0.853  0.00  0.00     0.067 H 
ATOM     14  H3  <0> d          -1.755   5.679   0.943  0.00  0.00     0.067 H 
ENDBRANCH  10  11
ENDBRANCH   1  10
TORSDOF 2
