REMARK  1 active torsions:
REMARK  status: ('A' for Active; 'I' for Inactive)
REMARK    1  A    between atoms: C1_1  and  N1_2 
REMARK       I    between atoms: N1_2  and  C2_3 
REMARK       I    between atoms: C2_3  and  N2_5 
ROOT
ATOM      1  N1  <0> d           1.295  -1.868   2.912  0.00  0.00    -0.347 N 
ATOM      2  C2  <0> d           0.449  -1.389   1.979  0.00  0.00     0.318 C 
ATOM      3  O1  <0> d          -0.698  -1.792   1.933  0.00  0.00    -0.247 OA
ATOM      4  N2  <0> d           0.873  -0.462   1.097  0.00  0.00    -0.330 N 
ATOM      5  C3  <0> d           0.004  -0.007  -0.001  0.00  0.00     0.019 C 
ATOM      6  C4  <0> d          -0.021   1.526   0.006  0.00  0.00     0.034 C 
ATOM      7  O2  <0> d           1.321   2.018  -0.001  0.00  0.00    -0.388 OA
ATOM      8  C5  <0> d           2.085   1.651   1.151  0.00  0.00     0.034 C 
ATOM      9  C6  <0> d           2.218   0.125   1.202  0.00  0.00     0.019 C 
ATOM     10  H4  <0> d           2.187  -1.495   2.995  0.00  0.00     0.163 HD
ATOM     11  H5  <0> d          -1.006  -0.392   0.147  0.00  0.00     0.067 H 
ATOM     12  H6  <0> d           0.397  -0.364  -0.953  0.00  0.00     0.067 H 
ATOM     13  H7  <0> d          -0.546   1.885  -0.879  0.00  0.00     0.076 H 
ATOM     14  H8  <0> d          -0.534   1.877   0.902  0.00  0.00     0.076 H 
ATOM     15  H9  <0> d           1.580   2.003   2.050  0.00  0.00     0.076 H 
ATOM     16  H10 <0> d           3.076   2.101   1.088  0.00  0.00     0.076 H 
ATOM     17  H11 <0> d           2.675  -0.172   2.146  0.00  0.00     0.067 H 
ATOM     18  H12 <0> d           2.834  -0.218   0.371  0.00  0.00     0.067 H 
ENDROOT
BRANCH   1  19
ATOM     19  C1  <0> d           0.869  -2.952   3.800  0.00  0.00    -0.017 C 
ATOM     20  H1  <0> d           1.681  -3.204   4.481  0.00  0.00     0.056 H 
ATOM     21  H2  <0> d          -0.001  -2.631   4.373  0.00  0.00     0.056 H 
ATOM     22  H3  <0> d           0.608  -3.828   3.205  0.00  0.00     0.056 H 
ENDBRANCH   1  19
TORSDOF 1
