REMARK  5 active torsions:
REMARK  status: ('A' for Active; 'I' for Inactive)
REMARK    1  A    between atoms: C1_1  and  C2_2 
REMARK    2  A    between atoms: C2_2  and  C3_4 
REMARK    3  A    between atoms: C2_2  and  O2_12 
REMARK    4  A    between atoms: C3_4  and  O1_5 
REMARK    5  A    between atoms: O1_5  and  C4_6 
ROOT
ATOM      1  O1  <0> d           0.661  -1.937   1.295  0.00  0.00    -0.349 OA
ENDROOT
BRANCH   1   2
ATOM      2  C3  <0> d           0.742  -0.511   1.242  0.00  0.00     0.049 C 
ATOM      3  H5  <0> d           1.788  -0.208   1.190  0.00  0.00     0.079 H 
ATOM      4  H6  <0> d           0.285  -0.087   2.136  0.00  0.00     0.079 H 
BRANCH   2   5
ATOM      5  C2  <0> d           0.002  -0.004   0.002  0.00  0.00     0.053 C 
ATOM      6  H1  <0> d          -1.020  -0.381   0.010  0.00  0.00     0.085 H 
BRANCH   5   7
ATOM      7  C1  <0> d          -0.019   1.526   0.010  0.00  0.00    -0.050 C 
ATOM      8  H2  <0> d           1.004   1.903   0.003  0.00  0.00     0.031 H 
ATOM      9  H3  <0> d          -0.546   1.887  -0.873  0.00  0.00     0.031 H 
ATOM     10  H4  <0> d          -0.529   1.877   0.907  0.00  0.00     0.031 H 
ENDBRANCH   5   7
BRANCH   5  11
ATOM     11  O2  <0> d           0.671  -0.465  -1.174  0.00  0.00    -0.394 OA
ATOM     12  H12 <0> d           1.588  -0.167  -1.247  0.00  0.00     0.210 HD
ENDBRANCH   5  11
ENDBRANCH   2   5
ENDBRANCH   1   2
BRANCH   1  13
ATOM     13  C4  <0> d           1.272  -2.550   2.342  0.00  0.00     0.068 A 
ATOM     14  C9  <0> d           1.233  -3.933   2.457  0.00  0.00    -0.051 A 
ATOM     15  C8  <0> d           1.859  -4.554   3.519  0.00  0.00    -0.080 A 
ATOM     16  H11 <0> d           0.717  -4.522   1.713  0.00  0.00     0.087 H 
ATOM     17  C7  <0> d           2.514  -3.800   4.475  0.00  0.00    -0.083 A 
ATOM     18  H10 <0> d           1.833  -5.631   3.606  0.00  0.00     0.083 H 
ATOM     19  C6  <0> d           2.549  -2.422   4.367  0.00  0.00    -0.080 A 
ATOM     20  H9  <0> d           2.999  -4.288   5.308  0.00  0.00     0.083 H 
ATOM     21  C5  <0> d           1.930  -1.796   3.302  0.00  0.00    -0.051 A 
ATOM     22  H8  <0> d           3.062  -1.835   5.114  0.00  0.00     0.083 H 
ATOM     23  H7  <0> d           1.959  -0.720   3.218  0.00  0.00     0.087 H 
ENDBRANCH   1  13
TORSDOF 5
