REMARK  2 active torsions:
REMARK  status: ('A' for Active; 'I' for Inactive)
REMARK    1  A    between atoms: C1_1  and  O1_2 
REMARK    2  A    between atoms: O1_2  and  C2_3 
ROOT
ATOM      1  O1  <0> d          -0.682   1.547   1.184  0.00  0.00    -0.234 OA
ENDROOT
BRANCH   1   2
ATOM      2  C1  <0> d          -0.013   1.086   0.008  0.00  0.00     0.312 C 
ATOM      3  F4  <0> d           1.300   1.570  -0.002  0.00  0.00    -0.184 F 
ATOM      4  F5  <0> d          -0.689   1.549  -1.125  0.00  0.00    -0.184 F 
ATOM      5  H1  <0> d           0.002  -0.004   0.002  0.00  0.00     0.195 H 
ENDBRANCH   1   2
BRANCH   1   6
ATOM      6  C2  <0> d          -0.756   2.970   1.290  0.00  0.00     0.529 C 
ATOM      7  F1  <0> d          -1.453   3.483   0.191  0.00  0.00    -0.144 F 
ATOM      8  F2  <0> d          -1.426   3.315   2.469  0.00  0.00    -0.144 F 
ATOM      9  F3  <0> d           0.536   3.504   1.314  0.00  0.00    -0.144 F 
ENDBRANCH   1   6
TORSDOF 2
