REMARK  2 active torsions:
REMARK  status: ('A' for Active; 'I' for Inactive)
REMARK    1  A    between atoms: C2_2  and  N6_12 
REMARK    2  A    between atoms: C3_3  and  N3_7 
ROOT
ATOM      1  C1  <0> d          -0.016   1.356   0.009  0.00  0.00     0.025 A 
ATOM      2  C2  <0> d           1.270   1.785  -0.001  0.00  0.00     0.091 A 
ATOM      3  C3  <0> d           2.102   0.650  -0.015  0.00  0.00     0.183 A 
ATOM      4  N1  <0> d           1.340  -0.418  -0.013  0.00  0.00    -0.154 NA
ATOM      5  N2  <0> d           0.002  -0.004   0.002  0.00  0.00    -0.285 N 
ATOM      6  H1  <0> d          -0.775  -0.585   0.007  0.00  0.00     0.188 HD
ATOM      7  H2  <0> d          -0.897   1.982   0.025  0.00  0.00     0.117 H 
ENDROOT
BRANCH   3   8
ATOM      8  N3  <0> d           3.507   0.659  -0.028  0.00  0.00    -0.278 N 
ATOM      9  C5  <0> d           4.340  -0.229   0.582  0.00  0.00     0.094 A 
ATOM     10  N5  <0> d           5.563   0.142   0.315  0.00  0.00    -0.144 NA
ATOM     11  H4  <0> d           4.045  -1.082   1.175  0.00  0.00     0.147 H 
ATOM     12  N4  <0> d           5.549   1.203  -0.411  0.00  0.00    -0.144 NA
ATOM     13  C4  <0> d           4.316   1.562  -0.650  0.00  0.00     0.094 A 
ATOM     14  H3  <0> d           3.998   2.414  -1.232  0.00  0.00     0.147 H 
ENDBRANCH   3   8
BRANCH   2  15
ATOM     15  N6  <0> d           1.697   3.127   0.002  0.00  0.00    -0.395 N 
ATOM     16  H5  <0> d           1.044   3.844   0.012  0.00  0.00     0.156 HD
ATOM     17  H6  <0> d           2.645   3.334  -0.006  0.00  0.00     0.156 HD
ENDBRANCH   2  15
TORSDOF 2
