REMARK  1 active torsions:
REMARK  status: ('A' for Active; 'I' for Inactive)
REMARK    1  A    between atoms: C6_6  and  N1_7 
ROOT
ATOM      1  C1  <0> d          -0.017   1.385   0.010  0.00  0.00    -0.056 A 
ATOM      2  C2  <0> d           1.171   2.090   0.002  0.00  0.00    -0.060 A 
ATOM      3  C3  <0> d           2.378   1.415  -0.013  0.00  0.00     0.034 A 
ATOM      4  C4  <0> d           2.400   0.031  -0.022  0.00  0.00    -0.060 A 
ATOM      5  C5  <0> d           1.216  -0.679  -0.014  0.00  0.00    -0.056 A 
ATOM      6  C6  <0> d           0.002  -0.004   0.002  0.00  0.00     0.025 A 
ATOM      7 Cl1  <0> d           3.869   2.305  -0.024  0.00  0.00    -0.084 Cl
ATOM      8  H1  <0> d          -0.959   1.912   0.026  0.00  0.00     0.087 H 
ATOM      9  H2  <0> d           1.157   3.170   0.008  0.00  0.00     0.086 H 
ATOM     10  H3  <0> d           3.344  -0.494  -0.035  0.00  0.00     0.086 H 
ATOM     11  H4  <0> d           1.233  -1.759  -0.020  0.00  0.00     0.087 H 
ENDROOT
BRANCH   6  12
ATOM     12  N1  <0> d          -1.198  -0.721   0.010  0.00  0.00    -0.399 N 
ATOM     13  H5  <0> d          -2.045  -0.248   0.021  0.00  0.00     0.156 HD
ATOM     14  H6  <0> d          -1.183  -1.690   0.005  0.00  0.00     0.156 HD
ENDBRANCH   6  12
TORSDOF 1
