REMARK  3 active torsions:
REMARK  status: ('A' for Active; 'I' for Inactive)
REMARK    1  A    between atoms: C1_1  and  O1_2 
REMARK    2  A    between atoms: O1_2  and  C2_3 
REMARK    3  A    between atoms: C2_3  and  C3_5 
ROOT
ATOM      1  C3  <0> d          -0.018   1.503   0.010  0.00  0.00     0.136 C 
ATOM      2  C4  <0> d          -0.700   2.029  -1.270  0.00  0.00    -0.037 C 
ATOM      3  C5  <0> d           0.110   3.297  -1.637  0.00  0.00    -0.063 C 
ATOM      4  C6  <0> d           1.563   2.889  -1.287  0.00  0.00    -0.063 C 
ATOM      5  C7  <0> d           1.420   2.050  -0.001  0.00  0.00    -0.037 C 
ATOM      6  C8  <0> d          -0.734   1.990   1.200  0.00  0.00     0.079 C 
ATOM      7  N1  <0> d          -1.287   2.367   2.119  0.00  0.00    -0.196 NA
ATOM      8  H4  <0> d          -0.634   1.290  -2.068  0.00  0.00     0.036 H 
ATOM      9  H5  <0> d          -1.740   2.285  -1.071  0.00  0.00     0.036 H 
ATOM     10  H6  <0> d          -0.208   4.147  -1.033  0.00  0.00     0.033 H 
ATOM     11  H7  <0> d           0.018   3.524  -2.699  0.00  0.00     0.033 H 
ATOM     12  H8  <0> d           2.173   3.772  -1.100  0.00  0.00     0.033 H 
ATOM     13  H9  <0> d           1.994   2.289  -2.088  0.00  0.00     0.033 H 
ATOM     14  H10 <0> d           1.588   2.677   0.875  0.00  0.00     0.036 H 
ATOM     15  H11 <0> d           2.133   1.225  -0.012  0.00  0.00     0.036 H 
ENDROOT
BRANCH   1  16
ATOM     16  C2  <0> d           0.002  -0.004   0.002  0.00  0.00     0.281 C 
ATOM     17  O2  <0> d           1.056  -0.594  -0.011  0.00  0.00    -0.263 OA
BRANCH  16  18
ATOM     18  O1  <0> d          -1.151  -0.691   0.009  0.00  0.00    -0.325 OA
BRANCH  18  19
ATOM     19  C1  <0> d          -1.056  -2.140   0.001  0.00  0.00     0.013 C 
ATOM     20  H1  <0> d          -0.510  -2.473   0.884  0.00  0.00     0.067 H 
ATOM     21  H2  <0> d          -2.057  -2.570   0.008  0.00  0.00     0.067 H 
ATOM     22  H3  <0> d          -0.527  -2.464  -0.896  0.00  0.00     0.067 H 
ENDBRANCH  18  19
ENDBRANCH  16  18
ENDBRANCH   1  16
TORSDOF 3
