REMARK  1 active torsions:
REMARK  status: ('A' for Active; 'I' for Inactive)
REMARK    1  A    between atoms: C5_8  and  N4_12 
ROOT
ATOM      1  C1  <0> d          -0.017   1.408   0.010  0.00  0.00    -0.037 A 
ATOM      2  C2  <0> d           1.260   1.840  -0.000  0.00  0.00    -0.020 A 
ATOM      3  N1  <0> d           2.102   0.770  -0.014  0.00  0.00    -0.359 N 
ATOM      4  H1  <0> d           3.071   0.813  -0.023  0.00  0.00     0.165 HD
ATOM      5  C3  <0> d           1.349  -0.386  -0.013  0.00  0.00     0.131 A 
ATOM      6  C4  <0> d           0.002  -0.004   0.002  0.00  0.00     0.109 A 
ATOM      7  N2  <0> d          -0.957  -0.951   0.005  0.00  0.00    -0.063 NA
ATOM      8  C5  <0> d          -0.647  -2.225  -0.005  0.00  0.00     0.701 A 
ATOM      9  N3  <0> d           0.649  -2.651  -0.019  0.00  0.00    -0.153 N 
ATOM     10  C6  <0> d           1.663  -1.758  -0.023  0.00  0.00     0.288 A 
ATOM     11  O1  <0> d           2.824  -2.131  -0.036  0.00  0.00    -0.265 OA
ATOM     12  H2  <0> d          -0.899   2.031   0.026  0.00  0.00     0.089 H 
ATOM     13  H3  <0> d           1.568   2.875   0.002  0.00  0.00     0.111 H 
ATOM     14  H6  <0> d           0.845  -3.601  -0.026  0.00  0.00     0.187 HD
ENDROOT
BRANCH   8  15
ATOM     15  N4  <0> d          -1.656  -3.158  -0.001  0.00  0.00    -0.233 N 
ATOM     16  H4  <0> d          -2.582  -2.871   0.009  0.00  0.00     0.174 HD
ATOM     17  H5  <0> d          -1.441  -4.104  -0.009  0.00  0.00     0.174 HD
ENDBRANCH   8  15
TORSDOF 1
