REMARK  3 active torsions:
REMARK  status: ('A' for Active; 'I' for Inactive)
REMARK    1  A    between atoms: C1_1  and  C2_2 
REMARK    2  A    between atoms: C5_7  and  C6_9 
REMARK    3  A    between atoms: C6_9  and  C7_11 
ROOT
ATOM      1  C2  <0> d           0.002  -0.004   0.002  0.00  0.00    -0.041 A 
ATOM      2  C3  <0> d           0.009  -0.788  -1.053  0.00  0.00     0.025 A 
ATOM      3  O1  <0> d           0.028  -2.097  -0.741  0.00  0.00    -0.290 OA
ATOM      4  C4  <0> d           0.036  -2.304   0.586  0.00  0.00     0.279 A 
ATOM      5  O2  <0> d           0.053  -3.367   1.161  0.00  0.00    -0.264 OA
ATOM      6  C5  <0> d           0.026  -0.921   1.209  0.00  0.00     0.111 A 
ATOM      7  H1  <0> d           0.927  -0.757   1.801  0.00  0.00     0.074 H 
ATOM      8  H5  <0> d          -0.001  -0.419  -2.068  0.00  0.00     0.124 H 
ENDROOT
BRANCH   6   9
ATOM      9  C6  <0> d          -1.209  -0.727   2.051  0.00  0.00     0.141 C 
ATOM     10  O3  <0> d          -2.246  -0.390   1.532  0.00  0.00    -0.297 OA
BRANCH   9  11
ATOM     11  C7  <0> d          -1.150  -0.955   3.539  0.00  0.00    -0.020 C 
ATOM     12  H6  <0> d          -0.140  -1.252   3.822  0.00  0.00     0.037 H 
ATOM     13  H7  <0> d          -1.417  -0.034   4.058  0.00  0.00     0.037 H 
ATOM     14  H8  <0> d          -1.851  -1.743   3.814  0.00  0.00     0.037 H 
ENDBRANCH   9  11
ENDBRANCH   6   9
BRANCH   1  15
ATOM     15  C1  <0> d          -0.018   1.503   0.010  0.00  0.00    -0.052 C 
ATOM     16  H2  <0> d           1.004   1.880   0.003  0.00  0.00     0.033 H 
ATOM     17  H3  <0> d          -0.545   1.864  -0.873  0.00  0.00     0.033 H 
ATOM     18  H4  <0> d          -0.529   1.854   0.907  0.00  0.00     0.033 H 
ENDBRANCH   1  15
TORSDOF 3
