REMARK  4 active torsions:
REMARK  status: ('A' for Active; 'I' for Inactive)
REMARK    1  A    between atoms: C1_1  and  C2_2 
REMARK    2  A    between atoms: C2_2  and  O1_3 
REMARK    3  A    between atoms: O1_3  and  C3_4 
REMARK    4  A    between atoms: C5_9  and  C6_10 
ROOT
ATOM      1  C3  <0> d           0.777  -1.813  -1.337  0.00  0.00     0.111 A 
ATOM      2  C4  <0> d           0.312  -2.759  -0.484  0.00  0.00     0.030 A 
ATOM      3  N1  <0> d           0.617  -3.973  -1.011  0.00  0.00    -0.286 N 
ATOM      4  H1  <0> d           0.397  -4.862  -0.610  0.00  0.00     0.188 HD
ATOM      5  N2  <0> d           1.296  -3.759  -2.218  0.00  0.00    -0.177 NA
ATOM      6  C5  <0> d           1.391  -2.468  -2.412  0.00  0.00     0.085 A 
ATOM      7  H7  <0> d          -0.208  -2.580   0.446  0.00  0.00     0.118 H 
ENDROOT
BRANCH   1   8
ATOM      8  O1  <0> d           0.671  -0.465  -1.174  0.00  0.00    -0.348 OA
BRANCH   8   9
ATOM      9  C2  <0> d           0.002  -0.004   0.002  0.00  0.00     0.023 C 
ATOM     10  H5  <0> d           0.529  -0.365   0.885  0.00  0.00     0.074 H 
ATOM     11  H6  <0> d          -1.020  -0.381   0.010  0.00  0.00     0.074 H 
BRANCH   9  12
ATOM     12  C1  <0> d          -0.019   1.526   0.010  0.00  0.00    -0.056 C 
ATOM     13  H2  <0> d           1.004   1.903   0.003  0.00  0.00     0.030 H 
ATOM     14  H3  <0> d          -0.546   1.887  -0.873  0.00  0.00     0.030 H 
ATOM     15  H4  <0> d          -0.529   1.877   0.907  0.00  0.00     0.030 H 
ENDBRANCH   9  12
ENDBRANCH   8   9
ENDBRANCH   1   8
BRANCH   6  16
ATOM     16  C6  <0> d           2.050  -1.800  -3.591  0.00  0.00    -0.031 C 
ATOM     17  H8  <0> d           3.104  -1.630  -3.370  0.00  0.00     0.035 H 
ATOM     18  H9  <0> d           1.962  -2.442  -4.468  0.00  0.00     0.035 H 
ATOM     19  H10 <0> d           1.562  -0.846  -3.788  0.00  0.00     0.035 H 
ENDBRANCH   6  16
TORSDOF 4
