REMARK  4 active torsions:
REMARK  status: ('A' for Active; 'I' for Inactive)
REMARK    1  A    between atoms: C1_1  and  C2_2 
REMARK    2  A    between atoms: C3_3  and  C4_4 
REMARK    3  A    between atoms: C4_4  and  O1_11 
REMARK    4  A    between atoms: C7_7  and  C10_10 
ROOT
ATOM      1  C4  <0> d          -0.018   1.468   0.010  0.00  0.00     0.121 C 
ATOM      2  C5  <0> d          -0.734   1.961   1.269  0.00  0.00    -0.025 C 
ATOM      3  C6  <0> d          -2.169   1.432   1.280  0.00  0.00    -0.059 C 
ATOM      4  C7  <0> d          -2.909   1.938   0.040  0.00  0.00    -0.057 C 
ATOM      5  C8  <0> d          -2.193   1.445  -1.219  0.00  0.00    -0.059 C 
ATOM      6  C9  <0> d          -0.758   1.975  -1.229  0.00  0.00    -0.025 C 
ATOM      7  H4  <0> d          -0.207   1.600   2.152  0.00  0.00     0.038 H 
ATOM      8  H5  <0> d          -0.749   3.051   1.275  0.00  0.00     0.038 H 
ATOM      9  H6  <0> d          -2.680   1.783   2.177  0.00  0.00     0.033 H 
ATOM     10  H7  <0> d          -2.155   0.342   1.274  0.00  0.00     0.033 H 
ATOM     11  H8  <0> d          -2.924   3.028   0.046  0.00  0.00     0.039 H 
ATOM     12  H9  <0> d          -2.720   1.806  -2.102  0.00  0.00     0.033 H 
ATOM     13  H10 <0> d          -2.179   0.355  -1.224  0.00  0.00     0.033 H 
ATOM     14  H11 <0> d          -0.773   3.064  -1.223  0.00  0.00     0.038 H 
ATOM     15  H12 <0> d          -0.248   1.623  -2.126  0.00  0.00     0.038 H 
ENDROOT
BRANCH   1  16
ATOM     16  C3  <0> d           0.002  -0.004   0.002  0.00  0.00    -0.069 C 
ATOM     17  C2  <0> d           0.018  -1.178  -0.004  0.00  0.00    -0.108 C 
BRANCH  17  18
ATOM     18  C1  <0> d           0.038  -2.650  -0.013  0.00  0.00    -0.021 C 
ATOM     19  H1  <0> d          -0.985  -3.027  -0.005  0.00  0.00     0.044 H 
ATOM     20  H2  <0> d           0.548  -3.001  -0.909  0.00  0.00     0.044 H 
ATOM     21  H3  <0> d           0.565  -3.011   0.871  0.00  0.00     0.044 H 
ENDBRANCH  17  18
ENDBRANCH   1  16
BRANCH   1  22
ATOM     22  O1  <0> d           1.323   1.962  -0.000  0.00  0.00    -0.378 OA
ATOM     23  H16 <0> d           1.852   1.680   0.758  0.00  0.00     0.211 HD
ENDBRANCH   1  22
BRANCH   4  24
ATOM     24  C10 <0> d          -4.345   1.409   0.051  0.00  0.00    -0.073 C 
ATOM     25  H13 <0> d          -4.330   0.319   0.045  0.00  0.00     0.028 H 
ATOM     26  H14 <0> d          -4.855   1.760   0.948  0.00  0.00     0.028 H 
ATOM     27  H15 <0> d          -4.872   1.770  -0.832  0.00  0.00     0.028 H 
ENDBRANCH   4  24
TORSDOF 4
