REMARK  1 active torsions:
REMARK  status: ('A' for Active; 'I' for Inactive)
REMARK    1  A    between atoms: C2_2  and  C4_6 
ROOT
ATOM      1  C4  <0> d           1.724   3.199   0.002  0.00  0.00     0.060 C 
ATOM      2  C5  <0> d           1.888   3.659   1.391  0.00  0.00     0.065 C 
ATOM      3  N2  <0> d           2.015   4.013   2.463  0.00  0.00    -0.197 NA
ATOM      4  H3  <0> d           2.678   3.272  -0.520  0.00  0.00     0.065 H 
ATOM      5  H4  <0> d           0.985   3.822  -0.501  0.00  0.00     0.065 H 
ENDROOT
BRANCH   1   6
ATOM      6  C2  <0> d           1.258   1.766  -0.001  0.00  0.00     0.085 A 
ATOM      7  C1  <0> d          -0.016   1.341   0.009  0.00  0.00     0.034 A 
ATOM      8  N1  <0> d           0.002  -0.004   0.002  0.00  0.00    -0.246 NA
ATOM      9  H1  <0> d          -0.896   1.966   0.025  0.00  0.00     0.118 H 
ATOM     10  C3  <0> d           1.241  -0.405  -0.012  0.00  0.00     0.102 A 
ATOM     11  O1  <0> d           2.042   0.669  -0.014  0.00  0.00    -0.306 OA
ATOM     12  H2  <0> d           1.570  -1.434  -0.021  0.00  0.00     0.155 H 
ENDBRANCH   1   6
TORSDOF 1
