REMARK  3 active torsions:
REMARK  status: ('A' for Active; 'I' for Inactive)
REMARK    1  A    between atoms: C1_1  and  N1_2 
REMARK    2  A    between atoms: C4_6  and  C5_7 
REMARK    3  A    between atoms: C5_7  and  O1_8 
ROOT
ATOM      1  N1  <0> d          -0.016   1.346   0.009  0.00  0.00    -0.346 N 
ATOM      2  C2  <0> d           1.286   1.769  -0.001  0.00  0.00    -0.003 A 
ATOM      3  C3  <0> d           2.054   0.663  -0.014  0.00  0.00     0.019 A 
ATOM      4  N2  <0> d           1.244  -0.406  -0.012  0.00  0.00    -0.244 NA
ATOM      5  C4  <0> d           0.002  -0.004   0.002  0.00  0.00     0.129 A 
ATOM      6  H4  <0> d           1.630   2.792   0.001  0.00  0.00     0.113 H 
ATOM      7  H5  <0> d           3.134   0.641  -0.025  0.00  0.00     0.117 H 
ENDROOT
BRANCH   5   8
ATOM      8  C5  <0> d          -1.210  -0.899   0.009  0.00  0.00     0.071 C 
ATOM      9  H6  <0> d          -0.969  -1.833   0.516  0.00  0.00     0.086 H 
ATOM     10  H7  <0> d          -2.026  -0.401   0.534  0.00  0.00     0.086 H 
BRANCH   8  11
ATOM     11  O1  <0> d          -1.607  -1.175  -1.335  0.00  0.00    -0.393 OA
ATOM     12  H8  <0> d          -2.384  -1.747  -1.407  0.00  0.00     0.209 HD
ENDBRANCH   8  11
ENDBRANCH   5   8
BRANCH   1  13
ATOM     13  C1  <0> d          -1.207   2.199   0.020  0.00  0.00    -0.013 C 
ATOM     14  H1  <0> d          -1.497   2.405   1.050  0.00  0.00     0.057 H 
ATOM     15  H2  <0> d          -0.987   3.137  -0.490  0.00  0.00     0.057 H 
ATOM     16  H3  <0> d          -2.023   1.690  -0.493  0.00  0.00     0.057 H 
ENDBRANCH   1  13
TORSDOF 3
