REMARK  4 active torsions:
REMARK  status: ('A' for Active; 'I' for Inactive)
REMARK    1  A    between atoms: C1_1  and  C2_2 
REMARK    2  A    between atoms: C4_4  and  S1_9 
REMARK    3  A    between atoms: C7_7  and  O1_8 
REMARK    4  A    between atoms: S1_9  and  C8_10 
ROOT
ATOM      1  C2  <0> d           1.162   3.172   0.008  0.00  0.00    -0.028 A 
ATOM      2  C3  <0> d          -0.042   3.848   0.024  0.00  0.00    -0.058 A 
ATOM      3  C4  <0> d          -1.236   3.139   0.031  0.00  0.00     0.000 A 
ATOM      4  C5  <0> d          -1.218   1.750   0.017  0.00  0.00    -0.064 A 
ATOM      5  C6  <0> d          -0.013   1.076   0.008  0.00  0.00    -0.049 A 
ATOM      6  C7  <0> d           1.179   1.786   0.000  0.00  0.00     0.071 A 
ATOM      7  H4  <0> d          -0.055   4.928   0.029  0.00  0.00     0.086 H 
ATOM      8  H5  <0> d          -2.146   1.197   0.019  0.00  0.00     0.085 H 
ATOM      9  H6  <0> d           0.002  -0.004   0.002  0.00  0.00     0.087 H 
ENDROOT
BRANCH   3  10
ATOM     10  S1  <0> d          -2.773   4.000   0.051  0.00  0.00    -0.134 SA
BRANCH  10  11
ATOM     11  C8  <0> d          -4.016   2.679   0.056  0.00  0.00    -0.030 C 
ATOM     12  H8  <0> d          -3.900   2.067  -0.839  0.00  0.00     0.042 H 
ATOM     13  H9  <0> d          -3.882   2.057   0.941  0.00  0.00     0.042 H 
ATOM     14  H10 <0> d          -5.014   3.118   0.068  0.00  0.00     0.042 H 
ENDBRANCH  10  11
ENDBRANCH   3  10
BRANCH   1  15
ATOM     15  C1  <0> d           2.458   3.942  -0.000  0.00  0.00    -0.049 C 
ATOM     16  H1  <0> d           2.760   4.133  -1.030  0.00  0.00     0.033 H 
ATOM     17  H2  <0> d           2.321   4.890   0.520  0.00  0.00     0.033 H 
ATOM     18  H3  <0> d           3.230   3.359   0.503  0.00  0.00     0.033 H 
ENDBRANCH   1  15
BRANCH   6  19
ATOM     19  O1  <0> d           2.366   1.121  -0.015  0.00  0.00    -0.360 OA
ATOM     20  H7  <0> d           2.700   0.934  -0.903  0.00  0.00     0.217 HD
ENDBRANCH   6  19
TORSDOF 4
