REMARK  2 active torsions:
REMARK  status: ('A' for Active; 'I' for Inactive)
REMARK    1  A    between atoms: C1_1  and  N1_2 
REMARK    2  A    between atoms: C3_4  and  C7_10 
ROOT
ATOM      1  N1  <0> d           2.695   3.431   1.380  0.00  0.00    -0.356 N 
ATOM      2  C2  <0> d           1.365   2.850   1.252  0.00  0.00     0.010 C 
ATOM      3  C3  <0> d           1.280   1.975   0.000  0.00  0.00     0.046 C 
ATOM      4  H1  <0> d           1.326   2.604  -0.889  0.00  0.00     0.059 H 
ATOM      5  C4  <0> d           2.462   0.998   0.004  0.00  0.00    -0.043 C 
ATOM      6  C5  <0> d           3.752   1.798  -0.189  0.00  0.00     0.010 C 
ATOM      7  C6  <0> d           3.779   2.961   0.760  0.00  0.00     0.219 C 
ATOM      8  O1  <0> d           4.842   3.503   0.974  0.00  0.00    -0.273 OA
ATOM      9  H5  <0> d           0.627   3.650   1.183  0.00  0.00     0.065 H 
ATOM     10  H6  <0> d           1.154   2.241   2.132  0.00  0.00     0.065 H 
ATOM     11  H7  <0> d           2.497   0.468   0.957  0.00  0.00     0.035 H 
ATOM     12  H8  <0> d           2.348   0.282  -0.810  0.00  0.00     0.035 H 
ATOM     13  H9  <0> d           3.801   2.165  -1.214  0.00  0.00     0.047 H 
ATOM     14  H10 <0> d           4.609   1.153   0.006  0.00  0.00     0.047 H 
ENDROOT
BRANCH   1  15
ATOM     15  C1  <0> d           2.852   4.604   2.243  0.00  0.00    -0.016 C 
ATOM     16  H2  <0> d           3.082   4.281   3.258  0.00  0.00     0.056 H 
ATOM     17  H3  <0> d           3.664   5.226   1.867  0.00  0.00     0.056 H 
ATOM     18  H4  <0> d           1.926   5.179   2.246  0.00  0.00     0.056 H 
ENDBRANCH   1  15
BRANCH   3  19
ATOM     19  C7  <0> d          -0.014   1.204   0.009  0.00  0.00     0.178 C 
ATOM     20  O2  <0> d           0.002  -0.004   0.002  0.00  0.00    -0.648 OA
ATOM     21  O3  <0> d          -1.186   1.859   0.018  0.00  0.00    -0.648 OA
ENDBRANCH   3  19
TORSDOF 2
