REMARK  1 active torsions:
REMARK  status: ('A' for Active; 'I' for Inactive)
REMARK    1  A    between atoms: C1_1  and  C2_2 
ROOT
ATOM      1  C2  <0> d          -1.137  -1.001   0.007  0.00  0.00    -0.013 C 
ATOM      2  H1  <0> d          -1.568  -1.088  -0.990  0.00  0.00     0.049 H 
ATOM      3  C3  <0> d          -0.499  -2.340   0.434  0.00  0.00    -0.052 C 
ATOM      4  C4  <0> d           0.966  -2.170  -0.019  0.00  0.00    -0.022 C 
ATOM      5  C5  <0> d           1.212  -0.676  -0.013  0.00  0.00     0.059 A 
ATOM      6  C6  <0> d           0.002  -0.004   0.002  0.00  0.00     0.062 A 
ATOM      7  N1  <0> d          -0.016   1.319   0.009  0.00  0.00    -0.262 NA
ATOM      8  C7  <0> d           1.116   2.000   0.002  0.00  0.00     0.019 A 
ATOM      9  C8  <0> d           2.325   1.327  -0.013  0.00  0.00     0.019 A 
ATOM     10  N2  <0> d           2.345   0.007  -0.020  0.00  0.00    -0.262 NA
ATOM     11  H5  <0> d          -0.558  -2.470   1.515  0.00  0.00     0.034 H 
ATOM     12  H6  <0> d          -0.973  -3.176  -0.081  0.00  0.00     0.034 H 
ATOM     13  H7  <0> d           1.639  -2.666   0.681  0.00  0.00     0.042 H 
ATOM     14  H8  <0> d           1.101  -2.573  -1.023  0.00  0.00     0.042 H 
ATOM     15  H9  <0> d           1.098   3.079   0.008  0.00  0.00     0.117 H 
ATOM     16  H10 <0> d           3.252   1.882  -0.019  0.00  0.00     0.117 H 
ENDROOT
BRANCH   1  17
ATOM     17  C1  <0> d          -2.209  -0.577   1.013  0.00  0.00    -0.067 C 
ATOM     18  H2  <0> d          -2.614   0.393   0.725  0.00  0.00     0.028 H 
ATOM     19  H3  <0> d          -3.009  -1.316   1.025  0.00  0.00     0.028 H 
ATOM     20  H4  <0> d          -1.767  -0.504   2.007  0.00  0.00     0.028 H 
ENDBRANCH   1  17
TORSDOF 1
