REMARK  1 active torsions:
REMARK  status: ('A' for Active; 'I' for Inactive)
REMARK    1  A    between atoms: C1_1  and  C2_2 
ROOT
ATOM      1  C2  <0> d          -1.191   1.744   0.017  0.00  0.00    -0.057 A 
ATOM      2  C3  <0> d          -1.199   3.154   0.029  0.00  0.00    -0.061 A 
ATOM      3  C4  <0> d          -0.045   3.845   0.022  0.00  0.00    -0.008 A 
ATOM      4  N1  <0> d           1.164   3.191   0.008  0.00  0.00    -0.256 N 
ATOM      5  C5  <0> d           1.201   1.809   0.000  0.00  0.00     0.158 A 
ATOM      6  C6  <0> d          -0.013   1.076   0.008  0.00  0.00    -0.031 A 
ATOM      7  N2  <0> d           2.457   1.428  -0.013  0.00  0.00    -0.152 NA
ATOM      8  N3  <0> d           3.257   2.579  -0.014  0.00  0.00    -0.226 N 
ATOM      9  H1  <0> d           4.226   2.604  -0.023  0.00  0.00     0.194 HD
ATOM     10  C7  <0> d           2.433   3.647  -0.001  0.00  0.00     0.348 A 
ATOM     11  O1  <0> d           2.774   4.817   0.002  0.00  0.00    -0.245 OA
ATOM     12  H5  <0> d          -2.140   3.684   0.041  0.00  0.00     0.086 H 
ATOM     13  H6  <0> d          -0.068   4.925   0.029  0.00  0.00     0.112 H 
ATOM     14  H7  <0> d           0.002  -0.004   0.002  0.00  0.00     0.090 H 
ENDROOT
BRANCH   1  15
ATOM     15  C1  <0> d          -2.492   0.982   0.019  0.00  0.00    -0.051 C 
ATOM     16  H2  <0> d          -2.800   0.793   1.047  0.00  0.00     0.033 H 
ATOM     17  H3  <0> d          -3.257   1.569  -0.488  0.00  0.00     0.033 H 
ATOM     18  H4  <0> d          -2.357   0.034  -0.500  0.00  0.00     0.033 H 
ENDBRANCH   1  15
TORSDOF 1
