REMARK  5 active torsions:
REMARK  status: ('A' for Active; 'I' for Inactive)
REMARK    1  A    between atoms: C3_3  and  C4_4 
REMARK    2  A    between atoms: C3_3  and  O2_10 
REMARK    3  A    between atoms: C4_4  and  C5_5 
REMARK    4  A    between atoms: C5_5  and  C6_6 
REMARK    5  A    between atoms: C6_6  and  O1_9 
ROOT
ATOM      1  C4  <0> d           2.144   0.783   1.280  0.00  0.00    -0.034 C 
ATOM      2  H5  <0> d           2.392   1.810   1.550  0.00  0.00     0.037 H 
ATOM      3  H6  <0> d           1.569   0.325   2.084  0.00  0.00     0.037 H 
ENDROOT
BRANCH   1   4
ATOM      4  C3  <0> d           1.317   0.779  -0.006  0.00  0.00     0.058 A 
ATOM      5  C1  <0> d          -0.019   1.526   0.010  0.00  0.00    -0.034 A 
ATOM      6  C2  <0> d           0.002  -0.004   0.002  0.00  0.00    -0.034 A 
ATOM      7  H1  <0> d          -0.325   2.030  -0.906  0.00  0.00     0.037 H 
ATOM      8  H2  <0> d          -0.307   2.020   0.938  0.00  0.00     0.037 H 
ATOM      9  H3  <0> d          -0.273  -0.516   0.924  0.00  0.00     0.037 H 
ATOM     10  H4  <0> d          -0.290  -0.506  -0.920  0.00  0.00     0.037 H 
BRANCH   4  11
ATOM     11  O2  <0> d           2.067   0.796  -1.222  0.00  0.00    -0.390 OA
ATOM     12  H14 <0> d           2.901   0.309  -1.177  0.00  0.00     0.210 HD
ENDBRANCH   4  11
ENDBRANCH   1   4
BRANCH   1  13
ATOM     13  C5  <0> d           3.433  -0.011   1.060  0.00  0.00    -0.034 C 
ATOM     14  H7  <0> d           3.186  -1.038   0.790  0.00  0.00     0.037 H 
ATOM     15  H8  <0> d           4.009   0.446   0.256  0.00  0.00     0.037 H 
BRANCH  13  16
ATOM     16  C6  <0> d           4.261  -0.007   2.346  0.00  0.00     0.058 A 
ATOM     17  C8  <0> d           5.648  -0.653   2.296  0.00  0.00    -0.034 A 
ATOM     18  C7  <0> d           5.515   0.869   2.377  0.00  0.00    -0.034 A 
ATOM     19  H11 <0> d           5.992  -1.176   3.189  0.00  0.00     0.037 H 
ATOM     20  H12 <0> d           5.970  -1.080   1.347  0.00  0.00     0.037 H 
ATOM     21  H9  <0> d           5.750   1.443   1.481  0.00  0.00     0.037 H 
ATOM     22  H10 <0> d           5.772   1.348   3.322  0.00  0.00     0.037 H 
BRANCH  16  23
ATOM     23  O1  <0> d           3.517  -0.137   3.559  0.00  0.00    -0.390 OA
ATOM     24  H13 <0> d           4.061  -0.132   4.358  0.00  0.00     0.210 HD
ENDBRANCH  16  23
ENDBRANCH  13  16
ENDBRANCH   1  13
TORSDOF 5
