REMARK  4 active torsions:
REMARK  status: ('A' for Active; 'I' for Inactive)
REMARK    1  A    between atoms: C1_1  and  C2_2 
REMARK    2  A    between atoms: C2_2  and  C3_3 
REMARK    3  A    between atoms: C3_3  and  C4_5 
REMARK    4  A    between atoms: C3_3  and  N1_6 
REMARK       I    between atoms: N1_6  and  C5_7 
REMARK       I    between atoms: C5_7  and  N2_9 
ROOT
ATOM      1  C3  <0> d          -2.484   3.687   0.034  0.00  0.00     0.010 C 
ATOM      2  H1  <0> d          -3.215   3.132  -0.555  0.00  0.00     0.071 H 
ENDROOT
BRANCH   1   3
ATOM      3  C2  <0> d          -2.294   5.080  -0.569  0.00  0.00    -0.050 C 
ATOM      4  H5  <0> d          -3.223   5.644  -0.481  0.00  0.00     0.035 H 
ATOM      5  H6  <0> d          -1.500   5.602  -0.035  0.00  0.00     0.035 H 
BRANCH   3   6
ATOM      6  C1  <0> d          -1.915   4.949  -2.046  0.00  0.00    -0.075 C 
ATOM      7  H2  <0> d          -2.709   4.427  -2.580  0.00  0.00     0.027 H 
ATOM      8  H3  <0> d          -1.779   5.942  -2.475  0.00  0.00     0.027 H 
ATOM      9  H4  <0> d          -0.986   4.385  -2.134  0.00  0.00     0.027 H 
ENDBRANCH   3   6
ENDBRANCH   1   3
BRANCH   1  10
ATOM     10  C4  <0> d          -2.984   3.818   1.474  0.00  0.00    -0.057 C 
ATOM     11  H7  <0> d          -3.935   4.350   1.481  0.00  0.00     0.030 H 
ATOM     12  H8  <0> d          -3.119   2.825   1.904  0.00  0.00     0.030 H 
ATOM     13  H9  <0> d          -2.253   4.372   2.063  0.00  0.00     0.030 H 
ENDBRANCH   1  10
BRANCH   1  14
ATOM     14  N1  <0> d          -1.206   2.971   0.024  0.00  0.00    -0.339 N 
ATOM     15  C5  <0> d          -1.187   1.624   0.017  0.00  0.00     0.314 C 
ATOM     16  O1  <0> d          -2.232   1.002   0.018  0.00  0.00    -0.248 OA
ATOM     17  N2  <0> d          -0.011   0.966   0.007  0.00  0.00    -0.352 N 
ATOM     18  H11 <0> d           0.002  -0.004   0.002  0.00  0.00     0.160 HD
ATOM     19  H12 <0> d           0.822   1.462   0.002  0.00  0.00     0.160 HD
ATOM     20  H10 <0> d          -0.372   3.468   0.023  0.00  0.00     0.164 HD
ENDBRANCH   1  14
TORSDOF 4
