REMARK  3 active torsions:
REMARK  status: ('A' for Active; 'I' for Inactive)
REMARK    1  A    between atoms: C1_1  and  C2_2 
REMARK    2  A    between atoms: C3_3  and  C7_8 
REMARK    3  A    between atoms: C7_8  and  C8_10 
ROOT
ATOM      1  C2  <0> d          -0.053   3.806   0.061  0.00  0.00     0.044 A 
ATOM      2  C3  <0> d          -1.215   3.073  -0.203  0.00  0.00     0.034 A 
ATOM      3  C4  <0> d          -1.135   1.674  -0.250  0.00  0.00    -0.066 A 
ATOM      4  C5  <0> d           0.093   1.079  -0.023  0.00  0.00    -0.065 A 
ATOM      5  C6  <0> d           1.195   1.876   0.231  0.00  0.00     0.003 A 
ATOM      6  N1  <0> d           1.093   3.192   0.265  0.00  0.00    -0.265 NA
ATOM      7  H4  <0> d          -2.011   1.076  -0.455  0.00  0.00     0.085 H 
ATOM      8  H5  <0> d           0.191   0.004  -0.049  0.00  0.00     0.085 H 
ATOM      9  H6  <0> d           2.155   1.414   0.404  0.00  0.00     0.114 H 
ENDROOT
BRANCH   2  10
ATOM     10  C7  <0> d          -2.497   3.759  -0.432  0.00  0.00     0.157 C 
ATOM     11  O1  <0> d          -2.534   4.969  -0.498  0.00  0.00    -0.293 OA
BRANCH  10  12
ATOM     12  C8  <0> d          -3.764   2.957  -0.584  0.00  0.00    -0.017 C 
ATOM     13  H7  <0> d          -3.553   1.982  -0.503  0.00  0.00     0.038 H 
ATOM     14  H8  <0> d          -4.470   3.242   0.196  0.00  0.00     0.038 H 
ATOM     15  H9  <0> d          -4.203   3.153  -1.562  0.00  0.00     0.038 H 
ENDBRANCH  10  12
ENDBRANCH   2  10
BRANCH   1  16
ATOM     16  C1  <0> d          -0.114   5.311   0.112  0.00  0.00    -0.035 C 
ATOM     17  H1  <0> d          -0.044   5.712  -0.900  0.00  0.00     0.035 H 
ATOM     18  H2  <0> d          -1.058   5.622   0.561  0.00  0.00     0.035 H 
ATOM     19  H3  <0> d           0.715   5.688   0.710  0.00  0.00     0.035 H 
ENDBRANCH   1  16
TORSDOF 3
