REMARK  2 active torsions:
REMARK  status: ('A' for Active; 'I' for Inactive)
REMARK    1  A    between atoms: C1_1  and  C2_2 
REMARK    2  A    between atoms: C2_2  and  C3_3 
ROOT
ATOM      1  C3  <0> d          -1.433  -0.534   0.013  0.00  0.00    -0.050 C 
ATOM      2  H1  <0> d          -2.003  -0.101  -0.809  0.00  0.00     0.040 H 
ATOM      3  C4  <0> d          -2.114  -0.219   1.365  0.00  0.00    -0.058 C 
ATOM      4  C5  <0> d          -2.466  -1.615   1.963  0.00  0.00    -0.053 C 
ATOM      5  H2  <0> d          -2.641  -1.642   3.039  0.00  0.00     0.040 H 
ATOM      6  C6  <0> d          -3.632  -2.139   1.070  0.00  0.00    -0.061 C 
ATOM      7  C7  <0> d          -2.971  -2.453  -0.291  0.00  0.00    -0.061 C 
ATOM      8  C8  <0> d          -1.439  -2.090  -0.081  0.00  0.00    -0.050 C 
ATOM      9  H3  <0> d          -0.733  -2.527  -0.787  0.00  0.00     0.040 H 
ATOM     10  C9  <0> d          -1.261  -2.470   1.434  0.00  0.00    -0.058 C 
ATOM     11  H9  <0> d          -1.425   0.313   2.022  0.00  0.00     0.034 H 
ATOM     12  H10 <0> d          -3.019   0.367   1.207  0.00  0.00     0.034 H 
ATOM     13  H11 <0> d          -4.064  -3.043   1.500  0.00  0.00     0.033 H 
ATOM     14  H12 <0> d          -4.396  -1.371   0.953  0.00  0.00     0.033 H 
ATOM     15  H13 <0> d          -3.077  -3.511  -0.530  0.00  0.00     0.033 H 
ATOM     16  H14 <0> d          -3.410  -1.839  -1.078  0.00  0.00     0.033 H 
ATOM     17  H15 <0> d          -0.308  -2.124   1.833  0.00  0.00     0.034 H 
ATOM     18  H16 <0> d          -1.409  -3.536   1.608  0.00  0.00     0.034 H 
ENDROOT
BRANCH   1  19
ATOM     19  C2  <0> d           0.002  -0.004   0.002  0.00  0.00    -0.065 C 
ATOM     20  H7  <0> d           0.512  -0.356  -0.895  0.00  0.00     0.033 H 
ATOM     21  H8  <0> d           0.529  -0.365   0.885  0.00  0.00     0.033 H 
BRANCH  19  22
ATOM     22  C1  <0> d          -0.019   1.526   0.010  0.00  0.00    -0.076 C 
ATOM     23  H4  <0> d           1.004   1.903   0.003  0.00  0.00     0.027 H 
ATOM     24  H5  <0> d          -0.546   1.887  -0.873  0.00  0.00     0.027 H 
ATOM     25  H6  <0> d          -0.529   1.877   0.907  0.00  0.00     0.027 H 
ENDBRANCH  19  22
ENDBRANCH   1  19
TORSDOF 2
