REMARK  4 active torsions:
REMARK  status: ('A' for Active; 'I' for Inactive)
REMARK    1  A    between atoms: C1_1  and  O1_2 
REMARK    2  A    between atoms: O1_2  and  C2_3 
REMARK    3  A    between atoms: C2_3  and  C3_4 
REMARK    4  A    between atoms: C3_4  and  C4_5 
ROOT
ATOM      1  C2  <0> d          -2.479   0.930   0.019  0.00  0.00     0.028 C 
ATOM      2  H4  <0> d          -2.417   0.309  -0.875  0.00  0.00     0.075 H 
ATOM      3  H5  <0> d          -2.408   0.299   0.905  0.00  0.00     0.075 H 
ENDROOT
BRANCH   1   4
ATOM      4  O1  <0> d          -3.726   1.627   0.029  0.00  0.00    -0.395 OA
BRANCH   4   5
ATOM      5  C1  <0> d          -4.870   0.772   0.029  0.00  0.00     0.004 C 
ATOM      6  H1  <0> d          -4.850   0.138   0.916  0.00  0.00     0.066 H 
ATOM      7  H2  <0> d          -5.777   1.377   0.037  0.00  0.00     0.066 H 
ATOM      8  H3  <0> d          -4.858   0.148  -0.864  0.00  0.00     0.066 H 
ENDBRANCH   4   5
ENDBRANCH   1   4
BRANCH   1   9
ATOM      9  C3  <0> d          -1.329   1.940   0.019  0.00  0.00     0.035 C 
ATOM     10  H6  <0> d          -1.391   2.561   0.913  0.00  0.00     0.052 H 
ATOM     11  H7  <0> d          -1.400   2.570  -0.867  0.00  0.00     0.052 H 
BRANCH   9  12
ATOM     12  C4  <0> d          -0.014   1.204   0.009  0.00  0.00     0.174 C 
ATOM     13  O2  <0> d           0.002  -0.004   0.002  0.00  0.00    -0.648 OA
ATOM     14  O3  <0> d           1.139   1.891   0.001  0.00  0.00    -0.648 OA
ENDBRANCH   9  12
ENDBRANCH   1   9
TORSDOF 4
