REMARK  2 active torsions:
REMARK  status: ('A' for Active; 'I' for Inactive)
REMARK    1  A    between atoms: C7_9  and  C8_10 
REMARK    2  A    between atoms: C8_10  and  O1_11 
ROOT
ATOM      1  C1  <0> d          -0.017   1.401   0.010  0.00  0.00    -0.070 A 
ATOM      2  C2  <0> d           1.155   2.090   0.002  0.00  0.00    -0.037 A 
ATOM      3  C3  <0> d           2.373   1.381  -0.013  0.00  0.00     0.133 A 
ATOM      4  N1  <0> d           3.638   1.780  -0.024  0.00  0.00    -0.241 NA
ATOM      5  C4  <0> d           4.434   0.708  -0.037  0.00  0.00     0.020 A 
ATOM      6  C5  <0> d           3.664  -0.402  -0.035  0.00  0.00     0.003 A 
ATOM      7  N2  <0> d           2.360   0.011  -0.020  0.00  0.00    -0.316 N 
ATOM      8  C6  <0> d           1.176  -0.669  -0.013  0.00  0.00    -0.006 A 
ATOM      9  C7  <0> d           0.002  -0.004   0.002  0.00  0.00    -0.019 A 
ATOM     10  H1  <0> d          -0.958   1.930   0.017  0.00  0.00     0.084 H 
ATOM     11  H2  <0> d           1.153   3.170   0.008  0.00  0.00     0.089 H 
ATOM     12  H3  <0> d           5.514   0.726  -0.048  0.00  0.00     0.117 H 
ATOM     13  H4  <0> d           4.013  -1.424  -0.044  0.00  0.00     0.114 H 
ATOM     14  H5  <0> d           1.180  -1.749  -0.018  0.00  0.00     0.113 H 
ENDROOT
BRANCH   9  15
ATOM     15  C8  <0> d          -1.295  -0.772   0.010  0.00  0.00     0.042 C 
ATOM     16  H6  <0> d          -1.149  -1.726   0.517  0.00  0.00     0.081 H 
ATOM     17  H7  <0> d          -2.056  -0.194   0.534  0.00  0.00     0.081 H 
BRANCH  15  18
ATOM     18  O1  <0> d          -1.717  -1.007  -1.335  0.00  0.00    -0.396 OA
ATOM     19  H8  <0> d          -2.547  -1.498  -1.406  0.00  0.00     0.209 HD
ENDBRANCH  15  18
ENDBRANCH   9  15
TORSDOF 2
