REMARK  2 active torsions:
REMARK  status: ('A' for Active; 'I' for Inactive)
REMARK    1  A    between atoms: C1_1  and  C2_2 
REMARK    2  A    between atoms: C2_2  and  O1_7 
ROOT
ATOM      1  C2  <0> d           1.286   1.562  -0.002  0.00  0.00     0.072 C 
ATOM      2  C3  <0> d           1.168   3.103   0.008  0.00  0.00    -0.030 C 
ATOM      3  C4  <0> d           2.350   3.507  -0.904  0.00  0.00    -0.047 C 
ATOM      4  C5  <0> d           2.586   2.300  -1.783  0.00  0.00    -0.104 C 
ATOM      5  C6  <0> d           2.006   1.240  -1.291  0.00  0.00    -0.074 C 
ATOM      6  H4  <0> d           0.218   3.426  -0.418  0.00  0.00     0.038 H 
ATOM      7  H5  <0> d           1.297   3.500   1.015  0.00  0.00     0.038 H 
ATOM      8  H6  <0> d           2.083   4.372  -1.511  0.00  0.00     0.038 H 
ATOM      9  H7  <0> d           3.236   3.720  -0.306  0.00  0.00     0.038 H 
ATOM     10  H8  <0> d           3.159   2.314  -2.699  0.00  0.00     0.076 H 
ATOM     11  H9  <0> d           2.036   0.260  -1.745  0.00  0.00     0.081 H 
ENDROOT
BRANCH   1  12
ATOM     12  C1  <0> d           2.102   1.083   1.201  0.00  0.00    -0.045 C 
ATOM     13  H1  <0> d           2.200  -0.003   1.164  0.00  0.00     0.032 H 
ATOM     14  H2  <0> d           3.092   1.538   1.173  0.00  0.00     0.032 H 
ATOM     15  H3  <0> d           1.595   1.371   2.122  0.00  0.00     0.032 H 
ENDBRANCH   1  12
BRANCH   1  16
ATOM     16  O1  <0> d          -0.011   0.963   0.007  0.00  0.00    -0.386 OA
ATOM     17  H10 <0> d           0.002  -0.004   0.002  0.00  0.00     0.211 HD
ENDBRANCH   1  16
TORSDOF 2
