REMARK  4 active torsions:
REMARK  status: ('A' for Active; 'I' for Inactive)
REMARK    1  A    between atoms: C1_1  and  C2_2 
REMARK    2  A    between atoms: C2_2  and  C3_3 
REMARK    3  A    between atoms: C2_2  and  C4_4 
REMARK    4  A    between atoms: C2_2  and  C5_5 
ROOT
ATOM      1  C5  <0> d           0.002  -0.004   0.002  0.00  0.00    -0.047 C 
ATOM      2  C6  <0> d          -1.433  -0.532   0.004  0.00  0.00    -0.055 C 
ATOM      3  C7  <0> d          -1.414  -2.061  -0.098  0.00  0.00    -0.009 C 
ATOM      4  C8  <0> d          -0.548  -2.606   1.016  0.00  0.00     0.127 C 
ATOM      5  O1  <0> d          -0.957  -3.472   1.751  0.00  0.00    -0.298 OA
ATOM      6  C9  <0> d           0.844  -2.037   1.187  0.00  0.00    -0.009 C 
ATOM      7  C10 <0> d           0.742  -0.509   1.242  0.00  0.00    -0.055 C 
ATOM      8  H10 <0> d           0.515  -0.354  -0.894  0.00  0.00     0.041 H 
ATOM      9  H11 <0> d          -1.929  -0.236   0.929  0.00  0.00     0.034 H 
ATOM     10  H12 <0> d          -1.974  -0.118  -0.847  0.00  0.00     0.034 H 
ATOM     11  H13 <0> d          -1.041  -2.331  -0.986  0.00  0.00     0.044 H 
ATOM     12  H14 <0> d          -2.428  -2.448   0.004  0.00  0.00     0.044 H 
ATOM     13  H15 <0> d           1.414  -2.315   0.414  0.00  0.00     0.044 H 
ATOM     14  H16 <0> d           1.280  -2.409   2.114  0.00  0.00     0.044 H 
ATOM     15  H17 <0> d           1.743  -0.079   1.268  0.00  0.00     0.034 H 
ATOM     16  H18 <0> d           0.196  -0.213   2.137  0.00  0.00     0.034 H 
ENDROOT
BRANCH   1  17
ATOM     17  C2  <0> d          -0.019   1.526   0.010  0.00  0.00    -0.048 C 
BRANCH  17  18
ATOM     18  C1  <0> d           1.417   2.055  -0.000  0.00  0.00    -0.069 C 
ATOM     19  H1  <0> d           1.927   1.704  -0.897  0.00  0.00     0.028 H 
ATOM     20  H2  <0> d           1.402   3.145   0.006  0.00  0.00     0.028 H 
ATOM     21  H3  <0> d           1.944   1.694   0.883  0.00  0.00     0.028 H 
ENDBRANCH  17  18
BRANCH  17  22
ATOM     22  C3  <0> d          -0.759   2.033  -1.229  0.00  0.00    -0.069 C 
ATOM     23  H4  <0> d          -1.781   1.655  -1.221  0.00  0.00     0.028 H 
ATOM     24  H5  <0> d          -0.773   3.123  -1.223  0.00  0.00     0.028 H 
ATOM     25  H6  <0> d          -0.248   1.681  -2.126  0.00  0.00     0.028 H 
ENDBRANCH  17  22
BRANCH  17  26
ATOM     26  C4  <0> d          -0.735   2.019   1.269  0.00  0.00    -0.069 C 
ATOM     27  H7  <0> d          -0.208   1.658   2.152  0.00  0.00     0.028 H 
ATOM     28  H8  <0> d          -0.750   3.109   1.275  0.00  0.00     0.028 H 
ATOM     29  H9  <0> d          -1.757   1.642   1.277  0.00  0.00     0.028 H 
ENDBRANCH  17  26
ENDBRANCH   1  17
TORSDOF 4
