REMARK  2 active torsions:
REMARK  status: ('A' for Active; 'I' for Inactive)
REMARK    1  A    between atoms: C1_1  and  O1_2 
REMARK    2  A    between atoms: O1_2  and  N1_3 
ROOT
ATOM      1  N1  <0> d          -2.024   1.110   1.291  0.00  0.00    -0.226 N 
ATOM      2  C2  <0> d          -2.892   1.395   2.310  0.00  0.00     0.026 A 
ATOM      3  C3  <0> d          -4.056   0.787   2.013  0.00  0.00     0.021 A 
ATOM      4  N2  <0> d          -3.901   0.141   0.848  0.00  0.00    -0.252 NA
ATOM      5  C4  <0> d          -2.686   0.330   0.410  0.00  0.00     0.091 A 
ATOM      6  H4  <0> d          -2.684   1.995   3.184  0.00  0.00     0.117 H 
ATOM      7  H5  <0> d          -4.956   0.812   2.610  0.00  0.00     0.117 H 
ATOM      8  H6  <0> d          -2.278  -0.071  -0.506  0.00  0.00     0.147 H 
ENDROOT
BRANCH   1   9
ATOM      9  O1  <0> d          -0.682   1.547   1.184  0.00  0.00    -0.278 OA
BRANCH   9  10
ATOM     10  C1  <0> d          -0.013   1.086   0.008  0.00  0.00     0.030 C 
ATOM     11  H1  <0> d           0.002  -0.004   0.002  0.00  0.00     0.070 H 
ATOM     12  H2  <0> d           1.010   1.463   0.000  0.00  0.00     0.070 H 
ATOM     13  H3  <0> d          -0.540   1.447  -0.875  0.00  0.00     0.070 H 
ENDBRANCH   9  10
ENDBRANCH   1   9
TORSDOF 2
