REMARK  0 active torsions:
REMARK  status: ('A' for Active; 'I' for Inactive)
ROOT
ATOM      1  C1  <0> d          -0.016   1.356   0.009  0.00  0.00    -0.081 A 
ATOM      2  C2  <0> d           1.169   2.090   0.002  0.00  0.00    -0.081 A 
ATOM      3  C3  <0> d           2.378   1.467  -0.013  0.00  0.00    -0.053 A 
ATOM      4  C4  <0> d           2.438   0.062  -0.021  0.00  0.00     0.085 A 
ATOM      5  C5  <0> d           1.232  -0.684  -0.013  0.00  0.00     0.085 A 
ATOM      6  C6  <0> d           0.002  -0.004   0.002  0.00  0.00    -0.053 A 
ATOM      7  N1  <0> d           1.283  -2.021  -0.021  0.00  0.00    -0.257 NA
ATOM      8  C7  <0> d           2.448  -2.628  -0.036  0.00  0.00     0.020 A 
ATOM      9  C8  <0> d           3.635  -1.893  -0.044  0.00  0.00     0.020 A 
ATOM     10  N2  <0> d           3.611  -0.580  -0.036  0.00  0.00    -0.257 NA
ATOM     11  H1  <0> d          -0.963   1.875   0.026  0.00  0.00     0.083 H 
ATOM     12  H2  <0> d           1.127   3.169   0.008  0.00  0.00     0.083 H 
ATOM     13  H3  <0> d           3.288   2.048  -0.019  0.00  0.00     0.087 H 
ATOM     14  H4  <0> d          -0.924  -0.559   0.008  0.00  0.00     0.087 H 
ATOM     15  H5  <0> d           2.487  -3.707  -0.043  0.00  0.00     0.117 H 
ATOM     16  H6  <0> d           4.583  -2.410  -0.056  0.00  0.00     0.117 H 
ENDROOT
TORSDOF 0
