REMARK  3 active torsions:
REMARK  status: ('A' for Active; 'I' for Inactive)
REMARK    1  A    between atoms: C1_1  and  C2_2 
REMARK       I    between atoms: C2_2  and  N1_4 
REMARK    2  A    between atoms: C5_7  and  C8_10 
REMARK    3  A    between atoms: C8_10  and  O2_11 
ROOT
ATOM      1  C2  <0> d          -0.409   3.609   4.824  0.00  0.00     0.215 C 
ATOM      2  O1  <0> d          -0.375   4.820   4.780  0.00  0.00    -0.274 OA
ATOM      3  N1  <0> d          -0.845   2.908   3.758  0.00  0.00    -0.352 N 
ATOM      4  C3  <0> d          -0.782   1.440   3.751  0.00  0.00    -0.002 C 
ATOM      5  C4  <0> d          -0.037   0.985   2.492  0.00  0.00    -0.045 C 
ATOM      6  C5  <0> d          -0.711   1.591   1.258  0.00  0.00    -0.031 C 
ATOM      7  C6  <0> d          -0.641   3.118   1.336  0.00  0.00    -0.045 C 
ATOM      8  C7  <0> d          -1.393   3.597   2.582  0.00  0.00    -0.002 C 
ATOM      9  H4  <0> d          -0.247   1.092   4.647  0.00  0.00     0.064 H 
ATOM     10  H5  <0> d          -1.802   1.029   3.750  0.00  0.00     0.064 H 
ATOM     11  H6  <0> d           1.009   1.322   2.542  0.00  0.00     0.036 H 
ATOM     12  H7  <0> d          -0.066  -0.113   2.425  0.00  0.00     0.036 H 
ATOM     13  H8  <0> d          -1.764   1.274   1.224  0.00  0.00     0.043 H 
ATOM     14  H9  <0> d           0.411   3.434   1.396  0.00  0.00     0.036 H 
ATOM     15  H10 <0> d          -1.104   3.552   0.437  0.00  0.00     0.036 H 
ATOM     16  H11 <0> d          -2.463   3.363   2.485  0.00  0.00     0.064 H 
ATOM     17  H12 <0> d          -1.264   4.683   2.700  0.00  0.00     0.064 H 
ENDROOT
BRANCH   1  18
ATOM     18  C1  <0> d           0.035   2.887   6.070  0.00  0.00    -0.003 C 
ATOM     19  H1  <0> d          -0.068   1.802   5.921  0.00  0.00     0.040 H 
ATOM     20  H2  <0> d          -0.590   3.202   6.918  0.00  0.00     0.040 H 
ATOM     21  H3  <0> d           1.087   3.131   6.279  0.00  0.00     0.040 H 
ENDBRANCH   1  18
BRANCH   6  22
ATOM     22  C8  <0> d           0.009   1.111  -0.003  0.00  0.00     0.020 C 
ATOM     23  H13 <0> d           1.037   1.503  -0.011  0.00  0.00     0.074 H 
ATOM     24  H14 <0> d           0.036   0.011  -0.014  0.00  0.00     0.074 H 
BRANCH  22  25
ATOM     25  O2  <0> d          -0.689   1.582  -1.158  0.00  0.00    -0.400 OA
ATOM     26  H15 <0> d          -0.318   1.335  -2.164  0.00  0.00     0.209 HD
ENDBRANCH  22  25
ENDBRANCH   6  22
TORSDOF 3
