REMARK  6 active torsions:
REMARK  status: ('A' for Active; 'I' for Inactive)
REMARK    1  A    between atoms: C1_1  and  C2_2 
REMARK    2  A    between atoms: C2_2  and  C3_4 
REMARK    3  A    between atoms: C2_2  and  O2_10 
REMARK    4  A    between atoms: C4_5  and  C5_6 
REMARK    5  A    between atoms: C5_6  and  C6_8 
REMARK    6  A    between atoms: C5_6  and  O1_9 
ROOT
ATOM      1  C3  <0> d          -0.725   1.573  -1.185  0.00  0.00    -0.072 C 
ATOM      2  C4  <0> d          -1.292   1.962  -2.136  0.00  0.00    -0.072 C 
ENDROOT
BRANCH   1   3
ATOM      3  C2  <0> d          -0.013   1.086   0.008  0.00  0.00     0.090 C 
ATOM      4  H1  <0> d           0.002  -0.004   0.002  0.00  0.00     0.102 H 
BRANCH   3   5
ATOM      5  C1  <0> d           1.423   1.615  -0.003  0.00  0.00    -0.043 C 
ATOM      6  H3  <0> d           1.950   1.254   0.880  0.00  0.00     0.032 H 
ATOM      7  H4  <0> d           1.933   1.264  -0.900  0.00  0.00     0.032 H 
ATOM      8  H5  <0> d           1.408   2.705   0.003  0.00  0.00     0.032 H 
ENDBRANCH   3   5
BRANCH   3   9
ATOM      9  O2  <0> d          -0.682   1.547   1.184  0.00  0.00    -0.384 OA
ATOM     10  H10 <0> d          -0.732   2.510   1.256  0.00  0.00     0.211 HD
ENDBRANCH   3   9
ENDBRANCH   1   3
BRANCH   2  11
ATOM     11  C5  <0> d          -2.004   2.450  -3.328  0.00  0.00     0.090 C 
ATOM     12  H2  <0> d          -2.019   3.540  -3.322  0.00  0.00     0.102 H 
BRANCH  11  13
ATOM     13  C6  <0> d          -1.288   1.956  -4.587  0.00  0.00    -0.043 C 
ATOM     14  H6  <0> d          -1.274   0.867  -4.593  0.00  0.00     0.032 H 
ATOM     15  H7  <0> d          -1.815   2.318  -5.470  0.00  0.00     0.032 H 
ATOM     16  H8  <0> d          -0.266   2.334  -4.595  0.00  0.00     0.032 H 
ENDBRANCH  11  13
BRANCH  11  17
ATOM     17  O1  <0> d          -3.345   1.955  -3.318  0.00  0.00    -0.384 OA
ATOM     18  H9  <0> d          -3.408   0.990  -3.323  0.00  0.00     0.211 HD
ENDBRANCH  11  17
ENDBRANCH   2  11
TORSDOF 6
