REMARK  1 active torsions:
REMARK  status: ('A' for Active; 'I' for Inactive)
REMARK    1  A    between atoms: C1_1  and  N1_2 
ROOT
ATOM      1  N1  <0> d          -1.313   1.762   0.030  0.00  0.00    -0.297 N 
ATOM      2  C2  <0> d          -0.016   1.349   0.009  0.00  0.00     0.040 A 
ATOM      3  C3  <0> d           0.002  -0.004   0.002  0.00  0.00     0.035 A 
ATOM      4  C4  <0> d          -1.331  -0.462   0.014  0.00  0.00     0.268 A 
ATOM      5  O1  <0> d          -1.693  -1.625   0.013  0.00  0.00    -0.266 OA
ATOM      6  N2  <0> d          -2.134   0.624   0.028  0.00  0.00    -0.264 N 
ATOM      7  H1  <0> d          -3.104   0.618   0.038  0.00  0.00     0.190 HD
ATOM      8  C5  <0> d           1.261  -0.836  -0.017  0.00  0.00    -0.034 C 
ATOM      9  C6  <0> d           2.429   0.064  -0.440  0.00  0.00    -0.061 C 
ATOM     10  C7  <0> d           2.420   1.341   0.404  0.00  0.00    -0.060 C 
ATOM     11  C8  <0> d           1.223   2.211   0.002  0.00  0.00    -0.024 C 
ATOM     12  H5  <0> d           1.450  -1.238   0.978  0.00  0.00     0.040 H 
ATOM     13  H6  <0> d           1.150  -1.653  -0.729  0.00  0.00     0.040 H 
ATOM     14  H7  <0> d           3.369  -0.466  -0.288  0.00  0.00     0.033 H 
ATOM     15  H8  <0> d           2.324   0.323  -1.494  0.00  0.00     0.033 H 
ATOM     16  H9  <0> d           2.342   1.079   1.459  0.00  0.00     0.033 H 
ATOM     17  H10 <0> d           3.344   1.895   0.234  0.00  0.00     0.033 H 
ATOM     18  H11 <0> d           1.381   2.617  -0.997  0.00  0.00     0.042 H 
ATOM     19  H12 <0> d           1.107   3.026   0.716  0.00  0.00     0.042 H 
ENDROOT
BRANCH   1  20
ATOM     20  C1  <0> d          -1.773   3.153   0.042  0.00  0.00     0.001 C 
ATOM     21  H2  <0> d          -1.901   3.502  -0.982  0.00  0.00     0.059 H 
ATOM     22  H3  <0> d          -2.724   3.216   0.570  0.00  0.00     0.059 H 
ATOM     23  H4  <0> d          -1.034   3.775   0.548  0.00  0.00     0.059 H 
ENDBRANCH   1  20
TORSDOF 1
