REMARK  1 active torsions:
REMARK  status: ('A' for Active; 'I' for Inactive)
REMARK    1  A    between atoms: C1_1  and  C2_2 
ROOT
ATOM      1  C2  <0> d           0.002  -0.004   0.002  0.00  0.00     0.010 A 
ATOM      2  H1  <0> d          -1.015  -0.396   0.022  0.00  0.00     0.072 H 
ATOM      3  C3  <0> d           0.748  -0.520  -1.239  0.00  0.00    -0.020 A 
ATOM      4  C4  <0> d           1.916  -1.304  -0.683  0.00  0.00    -0.027 A 
ATOM      5  C5  <0> d           2.929  -1.995  -1.320  0.00  0.00    -0.037 A 
ATOM      6  C6  <0> d           3.900  -2.644  -0.578  0.00  0.00     0.117 A 
ATOM      7  C7  <0> d           3.854  -2.599   0.806  0.00  0.00    -0.043 A 
ATOM      8  C8  <0> d           2.844  -1.911   1.444  0.00  0.00    -0.054 A 
ATOM      9  C9  <0> d           1.861  -1.253   0.701  0.00  0.00     0.035 A 
ATOM     10  N1  <0> d           0.764  -0.508   1.148  0.00  0.00    -0.385 N 
ATOM     11  F1  <0> d           4.890  -3.320  -1.201  0.00  0.00    -0.206 F 
ATOM     12  H5  <0> d           0.101  -1.170  -1.829  0.00  0.00     0.043 H 
ATOM     13  H6  <0> d           1.103   0.314  -1.844  0.00  0.00     0.043 H 
ATOM     14  H7  <0> d           2.962  -2.029  -2.399  0.00  0.00     0.089 H 
ATOM     15  H8  <0> d           4.611  -3.105   1.386  0.00  0.00     0.088 H 
ATOM     16  H9  <0> d           2.813  -1.880   2.523  0.00  0.00     0.087 H 
ATOM     17  H10 <0> d           0.540  -0.349   2.078  0.00  0.00     0.160 HD
ENDROOT
BRANCH   1  18
ATOM     18  C1  <0> d          -0.019   1.526   0.010  0.00  0.00    -0.057 C 
ATOM     19  H2  <0> d           1.004   1.903   0.003  0.00  0.00     0.030 H 
ATOM     20  H3  <0> d          -0.546   1.887  -0.873  0.00  0.00     0.030 H 
ATOM     21  H4  <0> d          -0.529   1.877   0.907  0.00  0.00     0.030 H 
ENDBRANCH   1  18
TORSDOF 1
