REMARK  2 active torsions:
REMARK  status: ('A' for Active; 'I' for Inactive)
REMARK    1  A    between atoms: C2_2  and  C7_10 
REMARK    2  A    between atoms: C3_3  and  C4_7 
ROOT
ATOM      1  C1  <0> d          -0.571   4.647  -3.027  0.00  0.00     0.014 A 
ATOM      2  C2  <0> d          -0.962   3.339  -2.819  0.00  0.00     0.084 A 
ATOM      3  C3  <0> d          -0.834   3.082  -1.435  0.00  0.00     0.077 A 
ATOM      4  N1  <0> d          -0.401   4.170  -0.860  0.00  0.00    -0.178 NA
ATOM      5  N2  <0> d          -0.225   5.158  -1.835  0.00  0.00    -0.288 N 
ATOM      6  H1  <0> d           0.104   6.088  -1.671  0.00  0.00     0.188 HD
ATOM      7  H2  <0> d          -0.548   5.165  -3.975  0.00  0.00     0.115 H 
ENDROOT
BRANCH   3   8
ATOM      8  C4  <0> d          -1.150   1.781  -0.743  0.00  0.00    -0.009 A 
ATOM      9  C6  <0> d          -1.136   1.773   0.788  0.00  0.00    -0.056 A 
ATOM     10  C5  <0> d          -0.013   1.086   0.008  0.00  0.00    -0.056 A 
ATOM     11  H6  <0> d          -1.859   1.135   1.295  0.00  0.00     0.034 H 
ATOM     12  H7  <0> d          -0.897   2.708   1.294  0.00  0.00     0.034 H 
ATOM     13  H4  <0> d           0.002  -0.004   0.002  0.00  0.00     0.034 H 
ATOM     14  H5  <0> d           0.964   1.569   0.001  0.00  0.00     0.034 H 
ATOM     15  H3  <0> d          -1.883   1.149  -1.243  0.00  0.00     0.049 H 
ENDBRANCH   3   8
BRANCH   2  16
ATOM     16  C7  <0> d          -1.425   2.390  -3.845  0.00  0.00     0.212 C 
ATOM     17  O1  <0> d          -1.742   1.261  -3.530  0.00  0.00    -0.644 OA
ATOM     18  O2  <0> d          -1.496   2.775  -5.135  0.00  0.00    -0.644 OA
ENDBRANCH   2  16
TORSDOF 2
