REMARK  3 active torsions:
REMARK  status: ('A' for Active; 'I' for Inactive)
REMARK    1  A    between atoms: C5_6  and  C6_7 
REMARK    2  A    between atoms: C6_7  and  C7_9 
REMARK    3  A    between atoms: C6_7  and  O4_12 
ROOT
ATOM      1  C1  <0> d          -0.019   1.528   0.010  0.00  0.00    -0.039 C 
ATOM      2  C2  <0> d           1.420   2.050  -0.001  0.00  0.00     0.020 C 
ATOM      3  O1  <0> d           2.102   1.539  -1.148  0.00  0.00    -0.391 OA
ATOM      4  C3  <0> d           2.194   0.114  -1.186  0.00  0.00     0.020 C 
ATOM      5  C4  <0> d           0.786  -0.486  -1.222  0.00  0.00    -0.039 C 
ATOM      6  C5  <0> d           0.002  -0.004   0.002  0.00  0.00    -0.016 C 
ATOM      7  H2  <0> d          -0.527   1.880   0.908  0.00  0.00     0.036 H 
ATOM      8  H3  <0> d          -0.544   1.890  -0.873  0.00  0.00     0.036 H 
ATOM      9  H4  <0> d           1.411   3.139  -0.038  0.00  0.00     0.074 H 
ATOM     10  H5  <0> d           1.933   1.721   0.903  0.00  0.00     0.074 H 
ATOM     11  H6  <0> d           2.743  -0.192  -2.077  0.00  0.00     0.074 H 
ATOM     12  H7  <0> d           2.717  -0.241  -0.297  0.00  0.00     0.074 H 
ATOM     13  H8  <0> d           0.277  -0.165  -2.131  0.00  0.00     0.036 H 
ATOM     14  H9  <0> d           0.853  -1.574  -1.206  0.00  0.00     0.036 H 
ATOM     15  H10 <0> d           0.484  -0.367   0.910  0.00  0.00     0.044 H 
ENDROOT
BRANCH   6  16
ATOM     16  C6  <0> d          -1.431  -0.535  -0.066  0.00  0.00     0.122 C 
ATOM     17  H1  <0> d          -2.014  -0.113   0.752  0.00  0.00     0.100 H 
BRANCH  16  18
ATOM     18  C7  <0> d          -1.416  -2.038   0.049  0.00  0.00     0.203 C 
ATOM     19  O2  <0> d          -1.038  -2.566   1.080  0.00  0.00    -0.646 OA
ATOM     20  O3  <0> d          -1.783  -2.725  -0.889  0.00  0.00    -0.646 OA
ENDBRANCH  16  18
BRANCH  16  21
ATOM     21  O4  <0> d          -2.019  -0.159  -1.313  0.00  0.00    -0.384 OA
ATOM     22  H11 <0> d          -1.552  -0.500  -2.088  0.00  0.00     0.210 HD
ENDBRANCH  16  21
ENDBRANCH   6  16
TORSDOF 3
