REMARK  2 active torsions:
REMARK  status: ('A' for Active; 'I' for Inactive)
REMARK    1  A    between atoms: C4_4  and  C7_7 
REMARK    2  A    between atoms: C7_7  and  O1_10 
ROOT
ATOM      1  C1  <0> d          -0.017   1.378   0.010  0.00  0.00    -0.083 A 
ATOM      2  C2  <0> d           1.171   2.086   0.002  0.00  0.00    -0.082 A 
ATOM      3  C3  <0> d           2.377   1.411  -0.013  0.00  0.00    -0.074 A 
ATOM      4  C4  <0> d           2.396   0.029  -0.020  0.00  0.00    -0.024 A 
ATOM      5  C5  <0> d           1.208  -0.679  -0.012  0.00  0.00    -0.074 A 
ATOM      6  C6  <0> d           0.002  -0.004   0.002  0.00  0.00    -0.082 A 
ATOM      7  H1  <0> d          -0.959   1.905   0.026  0.00  0.00     0.083 H 
ATOM      8  H2  <0> d           1.156   3.165   0.008  0.00  0.00     0.083 H 
ATOM      9  H3  <0> d           3.305   1.963  -0.020  0.00  0.00     0.084 H 
ATOM     10  H4  <0> d           1.223  -1.759  -0.018  0.00  0.00     0.084 H 
ATOM     11  H5  <0> d          -0.926  -0.557   0.008  0.00  0.00     0.083 H 
ENDROOT
BRANCH   4  12
ATOM     12  C7  <0> d           3.711  -0.707  -0.038  0.00  0.00     0.085 A 
ATOM     13  C9  <0> d           3.747  -2.074  -0.723  0.00  0.00    -0.029 A 
ATOM     14  C8  <0> d           3.819  -1.982   0.802  0.00  0.00    -0.029 A 
ATOM     15  H8  <0> d           2.819  -2.442  -1.162  0.00  0.00     0.038 H 
ATOM     16  H9  <0> d           4.659  -2.347  -1.255  0.00  0.00     0.038 H 
ATOM     17  H6  <0> d           4.778  -2.193   1.274  0.00  0.00     0.038 H 
ATOM     18  H7  <0> d           2.939  -2.288   1.367  0.00  0.00     0.038 H 
BRANCH  12  19
ATOM     19  O1  <0> d           4.876   0.115  -0.143  0.00  0.00    -0.385 OA
ATOM     20  H10 <0> d           4.799   0.966   0.309  0.00  0.00     0.211 HD
ENDBRANCH  12  19
ENDBRANCH   4  12
TORSDOF 2
