REMARK  0 active torsions:
REMARK  status: ('A' for Active; 'I' for Inactive)
ROOT
ATOM      1  C1  <0> d          -0.016   1.356   0.009  0.00  0.00    -0.082 A 
ATOM      2  C2  <0> d           1.158   2.099   0.002  0.00  0.00    -0.082 A 
ATOM      3  C3  <0> d           2.370   1.460  -0.013  0.00  0.00    -0.064 A 
ATOM      4  C4  <0> d           2.409   0.082  -0.020  0.00  0.00     0.038 A 
ATOM      5  C5  <0> d           1.230  -0.699  -0.013  0.00  0.00     0.039 A 
ATOM      6  C6  <0> d           0.002  -0.004   0.002  0.00  0.00    -0.067 A 
ATOM      7  C7  <0> d           1.517  -2.124  -0.024  0.00  0.00     0.219 A 
ATOM      8  N1  <0> d           2.751  -2.530  -0.038  0.00  0.00    -0.182 NA
ATOM      9  S1  <0> d           3.689  -1.143  -0.040  0.00  0.00     0.015 SA
ATOM     10  O1  <0> d           0.500  -3.026  -0.019  0.00  0.00    -0.169 OA
ATOM     11  H1  <0> d          -0.966   1.871   0.026  0.00  0.00     0.083 H 
ATOM     12  H2  <0> d           1.116   3.178   0.008  0.00  0.00     0.083 H 
ATOM     13  H3  <0> d           3.287   2.031  -0.019  0.00  0.00     0.085 H 
ATOM     14  H4  <0> d          -0.927  -0.555   0.008  0.00  0.00     0.085 H 
ENDROOT
TORSDOF 0
