REMARK  4 active torsions:
REMARK  status: ('A' for Active; 'I' for Inactive)
REMARK    1  A    between atoms: C1_1  and  C2_2 
REMARK    2  A    between atoms: C2_2  and  C3_3 
REMARK    3  A    between atoms: C3_3  and  C4_4 
REMARK    4  A    between atoms: C4_4  and  N1_5 
ROOT
ATOM      1  N1  <0> d           1.425  -2.500  -2.470  0.00  0.00    -0.352 N 
ATOM      2  C5  <0> d           0.624  -2.726  -3.667  0.00  0.00    -0.002 C 
ATOM      3  C6  <0> d           1.515  -2.748  -4.910  0.00  0.00    -0.050 C 
ATOM      4  C7  <0> d           2.677  -3.718  -4.665  0.00  0.00    -0.056 C 
ATOM      5  C8  <0> d           3.576  -3.130  -3.575  0.00  0.00     0.009 C 
ATOM      6  C9  <0> d           2.743  -2.691  -2.405  0.00  0.00     0.219 C 
ATOM      7  O1  <0> d           3.298  -2.504  -1.343  0.00  0.00    -0.273 OA
ATOM      8  H10 <0> d           0.106  -3.681  -3.579  0.00  0.00     0.064 H 
ATOM      9  H11 <0> d          -0.111  -1.928  -3.765  0.00  0.00     0.064 H 
ATOM     10  H12 <0> d           0.934  -3.083  -5.770  0.00  0.00     0.035 H 
ATOM     11  H13 <0> d           1.906  -1.748  -5.098  0.00  0.00     0.035 H 
ATOM     12  H14 <0> d           2.287  -4.683  -4.338  0.00  0.00     0.033 H 
ATOM     13  H15 <0> d           3.249  -3.845  -5.584  0.00  0.00     0.033 H 
ATOM     14  H16 <0> d           4.292  -3.885  -3.249  0.00  0.00     0.047 H 
ATOM     15  H17 <0> d           4.114  -2.271  -3.975  0.00  0.00     0.047 H 
ENDROOT
BRANCH   1  16
ATOM     16  C4  <0> d           0.739  -2.027  -1.265  0.00  0.00    -0.002 C 
ATOM     17  H8  <0> d           1.266  -2.388  -0.382  0.00  0.00     0.064 H 
ATOM     18  H9  <0> d          -0.284  -2.405  -1.258  0.00  0.00     0.064 H 
BRANCH  16  19
ATOM     19  C3  <0> d           0.718  -0.497  -1.257  0.00  0.00    -0.050 C 
ATOM     20  H6  <0> d           0.191  -0.136  -2.140  0.00  0.00     0.035 H 
ATOM     21  H7  <0> d           1.741  -0.120  -1.264  0.00  0.00     0.035 H 
BRANCH  19  22
ATOM     22  C2  <0> d           0.002  -0.004   0.002  0.00  0.00    -0.067 C 
ATOM     23  H4  <0> d           0.529  -0.365   0.885  0.00  0.00     0.032 H 
ATOM     24  H5  <0> d          -1.020  -0.381   0.010  0.00  0.00     0.032 H 
BRANCH  22  25
ATOM     25  C1  <0> d          -0.019   1.526   0.010  0.00  0.00    -0.076 C 
ATOM     26  H1  <0> d           1.004   1.903   0.003  0.00  0.00     0.027 H 
ATOM     27  H2  <0> d          -0.546   1.887  -0.873  0.00  0.00     0.027 H 
ATOM     28  H3  <0> d          -0.529   1.877   0.907  0.00  0.00     0.027 H 
ENDBRANCH  22  25
ENDBRANCH  19  22
ENDBRANCH  16  19
ENDBRANCH   1  16
TORSDOF 4
