REMARK  2 active torsions:
REMARK  status: ('A' for Active; 'I' for Inactive)
REMARK    1  A    between atoms: C1_1  and  C2_2 
REMARK    2  A    between atoms: C4_4  and  C7_9 
ROOT
ATOM      1  C2  <0> d          -0.017   1.401   0.010  0.00  0.00    -0.054 A 
ATOM      2  C3  <0> d           0.002  -0.004   0.002  0.00  0.00    -0.049 A 
ATOM      3  C4  <0> d           1.181  -0.661  -0.013  0.00  0.00     0.053 A 
ATOM      4  O1  <0> d           2.343   0.007  -0.021  0.00  0.00    -0.280 OA
ATOM      5  C5  <0> d           2.370   1.350  -0.014  0.00  0.00     0.288 A 
ATOM      6  O2  <0> d           3.438   1.938  -0.021  0.00  0.00    -0.260 OA
ATOM      7  C6  <0> d           1.167   2.079   0.002  0.00  0.00    -0.004 A 
ATOM      8  H4  <0> d          -0.925  -0.557   0.008  0.00  0.00     0.088 H 
ATOM      9  H5  <0> d           1.180   3.158   0.007  0.00  0.00     0.093 H 
ENDROOT
BRANCH   1  10
ATOM     10  C1  <0> d          -1.326   2.148   0.020  0.00  0.00    -0.051 C 
ATOM     11  H1  <0> d          -1.636   2.323   1.050  0.00  0.00     0.033 H 
ATOM     12  H2  <0> d          -1.202   3.104  -0.489  0.00  0.00     0.033 H 
ATOM     13  H3  <0> d          -2.085   1.559  -0.493  0.00  0.00     0.033 H 
ENDBRANCH   1  10
BRANCH   3  14
ATOM     14  C7  <0> d           1.191  -2.168  -0.021  0.00  0.00    -0.031 C 
ATOM     15  H6  <0> d           1.183  -2.526  -1.050  0.00  0.00     0.036 H 
ATOM     16  H7  <0> d           2.088  -2.528   0.482  0.00  0.00     0.036 H 
ATOM     17  H8  <0> d           0.308  -2.540   0.499  0.00  0.00     0.036 H 
ENDBRANCH   3  14
TORSDOF 2
