REMARK  1 active torsions:
REMARK  status: ('A' for Active; 'I' for Inactive)
REMARK    1  A    between atoms: C4_4  and  C7_7 
ROOT
ATOM      1  C7  <0> d           3.711  -0.707  -0.038  0.00  0.00    -0.006 C 
ATOM      2  H1  <0> d           4.542  -0.002  -0.030  0.00  0.00     0.050 H 
ATOM      3  C8  <0> d           3.798  -1.633  -1.275  0.00  0.00    -0.036 C 
ATOM      4  C9  <0> d           4.464  -2.902  -0.685  0.00  0.00     0.020 C 
ATOM      5  O1  <0> d           3.885  -3.004   0.634  0.00  0.00    -0.390 OA
ATOM      6  C10 <0> d           3.808  -1.667   1.164  0.00  0.00     0.027 C 
ATOM      7  H7  <0> d           2.804  -1.860  -1.662  0.00  0.00     0.037 H 
ATOM      8  H8  <0> d           4.423  -1.190  -2.050  0.00  0.00     0.037 H 
ATOM      9  H9  <0> d           4.215  -3.779  -1.282  0.00  0.00     0.074 H 
ATOM     10  H10 <0> d           5.545  -2.774  -0.621  0.00  0.00     0.074 H 
ATOM     11  H11 <0> d           4.703  -1.444   1.745  0.00  0.00     0.075 H 
ATOM     12  H12 <0> d           2.922  -1.567   1.791  0.00  0.00     0.075 H 
ENDROOT
BRANCH   1  13
ATOM     13  C4  <0> d           2.396   0.029  -0.020  0.00  0.00    -0.052 A 
ATOM     14  C3  <0> d           2.377   1.411  -0.013  0.00  0.00    -0.076 A 
ATOM     15  C2  <0> d           1.171   2.086   0.002  0.00  0.00    -0.082 A 
ATOM     16  H4  <0> d           3.305   1.963  -0.020  0.00  0.00     0.084 H 
ATOM     17  C1  <0> d          -0.017   1.378   0.010  0.00  0.00    -0.083 A 
ATOM     18  H3  <0> d           1.156   3.165   0.008  0.00  0.00     0.083 H 
ATOM     19  C6  <0> d           0.002  -0.004   0.002  0.00  0.00    -0.082 A 
ATOM     20  H2  <0> d          -0.959   1.905   0.026  0.00  0.00     0.083 H 
ATOM     21  C5  <0> d           1.208  -0.679  -0.012  0.00  0.00    -0.076 A 
ATOM     22  H6  <0> d          -0.926  -0.557   0.008  0.00  0.00     0.083 H 
ATOM     23  H5  <0> d           1.223  -1.759  -0.018  0.00  0.00     0.084 H 
ENDBRANCH   1  13
TORSDOF 1
