REMARK  8 active torsions:
REMARK  status: ('A' for Active; 'I' for Inactive)
REMARK    1  A    between atoms: C1_1  and  C2_2 
REMARK    2  A    between atoms: C2_2  and  C3_3 
REMARK    3  A    between atoms: C2_2  and  C4_4 
REMARK    4  A    between atoms: C2_2  and  N1_6 
REMARK    5  A    between atoms: N1_6  and  C6_7 
REMARK    6  A    between atoms: C6_7  and  C7_8 
REMARK    7  A    between atoms: C6_7  and  C8_9 
REMARK    8  A    between atoms: C6_7  and  C9_10 
ROOT
ATOM      1  C4  <0> d           0.404  -0.302   1.023  0.00  0.00    -0.076 C 
ATOM      2  C5  <0> d           0.107  -1.424   1.200  0.00  0.00    -0.151 C 
ATOM      3  H7  <0> d          -0.171  -2.475   1.366  0.00  0.00     0.166 H 
ENDROOT
BRANCH   1   4
ATOM      4  C2  <0> d           0.776   1.105   0.801  0.00  0.00     0.213 C 
BRANCH   4   5
ATOM      5  C1  <0> d          -0.101   1.696  -0.305  0.00  0.00    -0.033 C 
ATOM      6  H1  <0> d           0.048   1.127  -1.234  0.00  0.00     0.032 H 
ATOM      7  H2  <0> d           0.177   2.747  -0.470  0.00  0.00     0.032 H 
ATOM      8  H3  <0> d          -1.157   1.639  -0.005  0.00  0.00     0.032 H 
ENDBRANCH   4   5
BRANCH   4   9
ATOM      9  C3  <0> d           0.569   1.897   2.094  0.00  0.00    -0.033 C 
ATOM     10  H4  <0> d           1.199   1.472   2.889  0.00  0.00     0.032 H 
ATOM     11  H5  <0> d          -0.488   1.840   2.394  0.00  0.00     0.032 H 
ATOM     12  H6  <0> d           0.847   2.949   1.928  0.00  0.00     0.032 H 
ENDBRANCH   4   9
BRANCH   4  13
ATOM     13  N1  <0> d           2.187   1.181   0.401  0.00  0.00     0.124 N 
ATOM     14  H8  <0> d           2.827   0.961   1.268  0.00  0.00     0.320 HD
BRANCH  13  15
ATOM     15  C6  <0> d           2.520   2.521  -0.101  0.00  0.00     0.213 C 
BRANCH  15  16
ATOM     16  C7  <0> d           2.051   3.574   0.904  0.00  0.00    -0.033 C 
ATOM     17  H9  <0> d           2.300   4.577   0.528  0.00  0.00     0.032 H 
ATOM     18  H10 <0> d           2.552   3.409   1.869  0.00  0.00     0.032 H 
ATOM     19  H11 <0> d           0.962   3.493   1.038  0.00  0.00     0.032 H 
ENDBRANCH  15  16
BRANCH  15  20
ATOM     20  C8  <0> d           4.035   2.634  -0.288  0.00  0.00    -0.033 C 
ATOM     21  H12 <0> d           4.284   3.637  -0.664  0.00  0.00     0.032 H 
ATOM     22  H13 <0> d           4.372   1.876  -1.011  0.00  0.00     0.032 H 
ATOM     23  H14 <0> d           4.536   2.469   0.677  0.00  0.00     0.032 H 
ENDBRANCH  15  20
BRANCH  15  24
ATOM     24  C9  <0> d           1.849   2.741  -1.393  0.00  0.00    -0.076 C 
ATOM     25  C10 <0> d           1.313   2.917  -2.422  0.00  0.00    -0.151 C 
ATOM     26  H15 <0> d           0.834   3.075  -3.344  0.00  0.00     0.166 H 
ENDBRANCH  15  24
ENDBRANCH  13  15
ENDBRANCH   4  13
ENDBRANCH   1   4
TORSDOF 8
