REMARK  0 active torsions:
REMARK  status: ('A' for Active; 'I' for Inactive)
ROOT
ATOM      1  C1  <0> d          -2.168   1.012  -1.264  0.00  0.00    -0.059 C 
ATOM      2  C2  <0> d          -0.753   1.593  -1.232  0.00  0.00    -0.064 C 
ATOM      3  C3  <0> d          -0.013   1.086   0.008  0.00  0.00    -0.051 C 
ATOM      4  C4  <0> d          -0.728   1.579   1.264  0.00  0.00     0.020 C 
ATOM      5  C5  <0> d          -0.598   3.107   1.379  0.00  0.00    -0.051 C 
ATOM      6  C6  <0> d          -0.441   3.360   2.900  0.00  0.00    -0.064 C 
ATOM      7  C7  <0> d           0.434   2.166   3.358  0.00  0.00    -0.064 C 
ATOM      8  C8  <0> d          -0.078   0.977   2.517  0.00  0.00    -0.051 C 
ATOM      9  C9  <0> d          -2.185   1.194   1.201  0.00  0.00     0.135 C 
ATOM     10  O1  <0> d          -2.719   0.634   2.129  0.00  0.00    -0.297 OA
ATOM     11  C10 <0> d          -2.960   1.526  -0.056  0.00  0.00    -0.009 C 
ATOM     12  H1  <0> d          -2.666   1.321  -2.183  0.00  0.00     0.033 H 
ATOM     13  H2  <0> d          -2.115  -0.076  -1.227  0.00  0.00     0.033 H 
ATOM     14  H3  <0> d          -0.809   2.681  -1.200  0.00  0.00     0.033 H 
ATOM     15  H4  <0> d          -0.215   1.284  -2.127  0.00  0.00     0.033 H 
ATOM     16  H5  <0> d           0.002  -0.004   0.002  0.00  0.00     0.034 H 
ATOM     17  H6  <0> d           1.010   1.463   0.000  0.00  0.00     0.034 H 
ATOM     18  H7  <0> d           0.284   3.457   0.841  0.00  0.00     0.034 H 
ATOM     19  H8  <0> d          -1.495   3.597   1.001  0.00  0.00     0.034 H 
ATOM     20  H9  <0> d          -1.412   3.340   3.396  0.00  0.00     0.033 H 
ATOM     21  H10 <0> d           0.067   4.306   3.087  0.00  0.00     0.033 H 
ATOM     22  H11 <0> d           0.289   1.973   4.421  0.00  0.00     0.033 H 
ATOM     23  H12 <0> d           1.486   2.359   3.146  0.00  0.00     0.033 H 
ATOM     24  H13 <0> d          -0.814   0.408   3.084  0.00  0.00     0.034 H 
ATOM     25  H14 <0> d           0.755   0.333   2.233  0.00  0.00     0.034 H 
ATOM     26  H15 <0> d          -3.080   2.516  -0.133  0.00  0.00     0.044 H 
ATOM     27  H16 <0> d          -3.937   1.043  -0.027  0.00  0.00     0.044 H 
ENDROOT
TORSDOF 0
