REMARK  4 active torsions:
REMARK  status: ('A' for Active; 'I' for Inactive)
REMARK    1  A    between atoms: C1_1  and  N1_2 
REMARK    2  A    between atoms: N1_2  and  C2_3 
REMARK    3  A    between atoms: C6_7  and  O1_9 
REMARK    4  A    between atoms: O1_9  and  C8_10 
ROOT
ATOM      1  C2  <0> d          -0.049   3.846   0.022  0.00  0.00     0.030 A 
ATOM      2  C3  <0> d           1.161   3.163   0.007  0.00  0.00    -0.057 A 
ATOM      3  C4  <0> d           1.175   1.782   0.000  0.00  0.00    -0.078 A 
ATOM      4  C5  <0> d          -0.013   1.076   0.008  0.00  0.00    -0.051 A 
ATOM      5  C6  <0> d          -1.224   1.752   0.017  0.00  0.00     0.070 A 
ATOM      6  C7  <0> d          -1.243   3.138   0.029  0.00  0.00    -0.025 A 
ATOM      7  H5  <0> d           2.091   3.713   0.002  0.00  0.00     0.086 H 
ATOM      8  H6  <0> d           2.117   1.253  -0.011  0.00  0.00     0.083 H 
ATOM      9  H7  <0> d           0.002  -0.004   0.002  0.00  0.00     0.087 H 
ATOM     10  H8  <0> d          -2.185   3.666   0.041  0.00  0.00     0.091 H 
ENDROOT
BRANCH   1  11
ATOM     11  N1  <0> d          -0.064   5.243   0.029  0.00  0.00    -0.394 N 
ATOM     12  H4  <0> d          -0.909   5.719   0.039  0.00  0.00     0.159 HD
BRANCH  11  13
ATOM     13  C1  <0> d           1.196   5.989   0.021  0.00  0.00    -0.021 C 
ATOM     14  H1  <0> d           1.779   5.727   0.905  0.00  0.00     0.056 H 
ATOM     15  H2  <0> d           1.763   5.736  -0.875  0.00  0.00     0.056 H 
ATOM     16  H3  <0> d           0.986   7.058   0.029  0.00  0.00     0.056 H 
ENDBRANCH  11  13
ENDBRANCH   1  11
BRANCH   5  17
ATOM     17  O1  <0> d          -2.391   1.056   0.019  0.00  0.00    -0.356 OA
BRANCH  17  18
ATOM     18  C8  <0> d          -2.297  -0.369   0.012  0.00  0.00     0.010 C 
ATOM     19  H9  <0> d          -1.755  -0.703   0.897  0.00  0.00     0.066 H 
ATOM     20  H10 <0> d          -3.298  -0.800   0.015  0.00  0.00     0.066 H 
ATOM     21  H11 <0> d          -1.764  -0.693  -0.882  0.00  0.00     0.066 H 
ENDBRANCH  17  18
ENDBRANCH   5  17
TORSDOF 4
