REMARK  8 active torsions:
REMARK  status: ('A' for Active; 'I' for Inactive)
REMARK    1  A    between atoms: C1_1  and  C2_2 
REMARK    2  A    between atoms: C2_2  and  C3_4 
REMARK    3  A    between atoms: C2_2  and  O3_11 
REMARK    4  A    between atoms: C3_4  and  O2_6 
REMARK    5  A    between atoms: O2_6  and  C4_7 
REMARK    6  A    between atoms: C4_7  and  C5_8 
REMARK    7  A    between atoms: C5_8  and  C6_9 
REMARK    8  A    between atoms: C5_8  and  C7_10 
ROOT
ATOM      1  C4  <0> d           0.901  -0.741  -3.580  0.00  0.00     0.032 C 
ATOM      2  H5  <0> d           1.893  -0.290  -3.600  0.00  0.00     0.075 H 
ATOM      3  H6  <0> d           0.995  -1.824  -3.510  0.00  0.00     0.075 H 
ENDROOT
BRANCH   1   4
ATOM      4  O2  <0> d           0.178  -0.251  -2.448  0.00  0.00    -0.319 OA
BRANCH   4   5
ATOM      5  C3  <0> d           0.707  -0.490  -1.238  0.00  0.00     0.287 C 
ATOM      6  O1  <0> d           1.749  -1.095  -1.143  0.00  0.00    -0.262 OA
BRANCH   5   7
ATOM      7  C2  <0> d           0.002  -0.004   0.002  0.00  0.00     0.115 C 
ATOM      8  H1  <0> d          -1.020  -0.381   0.010  0.00  0.00     0.098 H 
BRANCH   7   9
ATOM      9  C1  <0> d          -0.019   1.526   0.010  0.00  0.00    -0.044 C 
ATOM     10  H2  <0> d           1.004   1.903   0.003  0.00  0.00     0.031 H 
ATOM     11  H3  <0> d          -0.546   1.887  -0.873  0.00  0.00     0.031 H 
ATOM     12  H4  <0> d          -0.529   1.877   0.907  0.00  0.00     0.031 H 
ENDBRANCH   7   9
BRANCH   7  13
ATOM     13  O3  <0> d           0.693  -0.477   1.160  0.00  0.00    -0.386 OA
ATOM     14  H14 <0> d           0.294  -0.202   1.996  0.00  0.00     0.210 HD
ENDBRANCH   7  13
ENDBRANCH   5   7
ENDBRANCH   4   5
ENDBRANCH   1   4
BRANCH   1  15
ATOM     15  C5  <0> d           0.149  -0.375  -4.862  0.00  0.00    -0.040 C 
ATOM     16  H7  <0> d          -0.873  -0.750  -4.803  0.00  0.00     0.042 H 
BRANCH  15  17
ATOM     17  C6  <0> d           0.126   1.146  -5.023  0.00  0.00    -0.071 C 
ATOM     18  H8  <0> d          -0.377   1.595  -4.167  0.00  0.00     0.028 H 
ATOM     19  H9  <0> d           1.148   1.521  -5.082  0.00  0.00     0.028 H 
ATOM     20  H10 <0> d          -0.410   1.406  -5.936  0.00  0.00     0.028 H 
ENDBRANCH  15  17
BRANCH  15  21
ATOM     21  C7  <0> d           0.855  -1.005  -6.064  0.00  0.00    -0.071 C 
ATOM     22  H11 <0> d           0.871  -2.089  -5.949  0.00  0.00     0.028 H 
ATOM     23  H12 <0> d           0.319  -0.745  -6.977  0.00  0.00     0.028 H 
ATOM     24  H13 <0> d           1.877  -0.631  -6.123  0.00  0.00     0.028 H 
ENDBRANCH  15  21
ENDBRANCH   1  15
TORSDOF 8
