REMARK  1 active torsions:
REMARK  status: ('A' for Active; 'I' for Inactive)
REMARK    1  A    between atoms: C1_1  and  C2_2 
ROOT
ATOM      1  C2  <0> d           0.002  -0.004   0.002  0.00  0.00     0.053 A 
ATOM      2  C3  <0> d           0.008  -0.804  -1.133  0.00  0.00    -0.029 A 
ATOM      3  C4  <0> d           0.028  -2.122  -0.715  0.00  0.00     0.084 A 
ATOM      4  C5  <0> d           0.042  -3.369  -1.369  0.00  0.00     0.052 A 
ATOM      5  N1  <0> d           0.060  -4.464  -0.644  0.00  0.00    -0.156 NA
ATOM      6  N2  <0> d           0.066  -4.428   0.639  0.00  0.00    -0.102 NA
ATOM      7  C6  <0> d           0.054  -3.305   1.319  0.00  0.00     0.319 A 
ATOM      8  O1  <0> d           0.061  -3.334   2.671  0.00  0.00    -0.145 OA
ATOM      9  N3  <0> d           0.035  -2.108   0.662  0.00  0.00    -0.190 N 
ATOM     10  N4  <0> d           0.023  -0.773   1.069  0.00  0.00    -0.169 NA
ATOM     11  H4  <0> d          -0.002  -0.459  -2.156  0.00  0.00     0.090 H 
ATOM     12  H5  <0> d           0.037  -3.425  -2.447  0.00  0.00     0.121 H 
ENDROOT
BRANCH   1  13
ATOM     13  C1  <0> d          -0.018   1.503   0.010  0.00  0.00    -0.034 C 
ATOM     14  H1  <0> d           1.004   1.880   0.003  0.00  0.00     0.035 H 
ATOM     15  H2  <0> d          -0.545   1.864  -0.873  0.00  0.00     0.035 H 
ATOM     16  H3  <0> d          -0.529   1.854   0.907  0.00  0.00     0.035 H 
ENDBRANCH   1  13
TORSDOF 1
