REMARK  3 active torsions:
REMARK  status: ('A' for Active; 'I' for Inactive)
REMARK    1  A    between atoms: C1_1  and  C2_2 
REMARK    2  A    between atoms: C3_3  and  C7_8 
REMARK    3  A    between atoms: C7_8  and  C8_9 
REMARK       I    between atoms: C8_9  and  N1_11 
ROOT
ATOM      1  C2  <0> d           0.002  -0.004   0.002  0.00  0.00    -0.057 C 
ATOM      2  C3  <0> d          -1.131  -0.641   0.004  0.00  0.00    -0.065 C 
ATOM      3  C4  <0> d          -1.214  -2.143   0.006  0.00  0.00    -0.024 C 
ATOM      4  C5  <0> d           0.137  -2.732  -0.408  0.00  0.00     0.023 C 
ATOM      5  O1  <0> d           1.166  -2.079   0.346  0.00  0.00    -0.387 OA
ATOM      6  C6  <0> d           1.331  -0.704  -0.014  0.00  0.00     0.040 C 
ATOM      7  H4  <0> d          -1.471  -2.491   1.006  0.00  0.00     0.042 H 
ATOM      8  H5  <0> d          -1.982  -2.465  -0.698  0.00  0.00     0.042 H 
ATOM      9  H6  <0> d           0.151  -3.802  -0.198  0.00  0.00     0.074 H 
ATOM     10  H7  <0> d           0.300  -2.565  -1.473  0.00  0.00     0.074 H 
ATOM     11  H8  <0> d           1.762  -0.638  -1.013  0.00  0.00     0.081 H 
ATOM     12  H9  <0> d           2.001  -0.224   0.699  0.00  0.00     0.081 H 
ENDROOT
BRANCH   2  13
ATOM     13  C7  <0> d          -2.410   0.155   0.005  0.00  0.00     0.030 C 
ATOM     14  H10 <0> d          -3.163  -0.366   0.596  0.00  0.00     0.053 H 
ATOM     15  H11 <0> d          -2.226   1.139   0.439  0.00  0.00     0.053 H 
BRANCH  13  16
ATOM     16  C8  <0> d          -2.904   0.315  -1.410  0.00  0.00     0.219 C 
ATOM     17  O2  <0> d          -2.279  -0.171  -2.328  0.00  0.00    -0.273 OA
ATOM     18  N1  <0> d          -4.041   0.997  -1.654  0.00  0.00    -0.370 N 
ATOM     19  H12 <0> d          -4.541   1.385  -0.919  0.00  0.00     0.159 HD
ATOM     20  H13 <0> d          -4.359   1.099  -2.564  0.00  0.00     0.159 HD
ENDBRANCH  13  16
ENDBRANCH   2  13
BRANCH   1  21
ATOM     21  C1  <0> d          -0.018   1.503   0.010  0.00  0.00    -0.052 C 
ATOM     22  H1  <0> d           1.004   1.880   0.003  0.00  0.00     0.033 H 
ATOM     23  H2  <0> d          -0.545   1.864  -0.873  0.00  0.00     0.033 H 
ATOM     24  H3  <0> d          -0.529   1.854   0.907  0.00  0.00     0.033 H 
ENDBRANCH   1  21
TORSDOF 3
