REMARK  1 active torsions:
REMARK  status: ('A' for Active; 'I' for Inactive)
REMARK    1  A    between atoms: C1_1  and  N3_10 
ROOT
ATOM      1  C1  <0> d           1.319   2.065   0.001  0.00  0.00     0.231 A 
ATOM      2  C2  <0> d          -0.016   1.346   0.009  0.00  0.00     0.267 A 
ATOM      3  O1  <0> d          -1.061   1.960   0.018  0.00  0.00    -0.270 OA
ATOM      4  N1  <0> d           0.002  -0.004   0.002  0.00  0.00    -0.276 N 
ATOM      5  C3  <0> d           1.147  -0.697  -0.013  0.00  0.00     0.329 A 
ATOM      6  O2  <0> d           1.071  -1.909  -0.018  0.00  0.00    -0.247 OA
ATOM      7  N2  <0> d           2.368  -0.152  -0.021  0.00  0.00    -0.276 N 
ATOM      8  C4  <0> d           2.555   1.185  -0.015  0.00  0.00     0.267 A 
ATOM      9  O3  <0> d           3.668   1.665  -0.023  0.00  0.00    -0.270 OA
ATOM     10  H1  <0> d           3.259  -0.798  -0.034  0.00  0.00     0.173 HD
ATOM     11  H4  <0> d          -0.943  -0.567   0.008  0.00  0.00     0.173 HD
ENDROOT
BRANCH   1  12
ATOM     12  N3  <0> d           1.362   2.935  -1.182  0.00  0.00    -0.404 N 
ATOM     13  H2  <0> d           0.552   3.658  -1.363  0.00  0.00     0.151 HD
ATOM     14  H3  <0> d           2.204   2.864  -1.887  0.00  0.00     0.151 HD
ENDBRANCH   1  12
TORSDOF 1
