REMARK  1 active torsions:
REMARK  status: ('A' for Active; 'I' for Inactive)
REMARK    1  A    between atoms: C2_2  and  N1_3 
ROOT
ATOM      1  N1  <0> d          -1.197  -0.718   0.010  0.00  0.00    -0.256 N 
ATOM      2  C3  <0> d          -1.323  -2.071   0.009  0.00  0.00     0.026 A 
ATOM      3  C4  <0> d          -2.646  -2.359   0.018  0.00  0.00     0.070 A 
ATOM      4  C5  <0> d          -3.350  -1.150   0.025  0.00  0.00     0.044 A 
ATOM      5  N2  <0> d          -2.485  -0.168   0.025  0.00  0.00    -0.179 NA
ATOM      6 Cl1  <0> d          -3.345  -3.948   0.022  0.00  0.00    -0.081 Cl
ATOM      7  H4  <0> d          -0.514  -2.787   0.002  0.00  0.00     0.117 H 
ATOM      8  H5  <0> d          -4.425  -1.045   0.033  0.00  0.00     0.120 H 
ENDROOT
BRANCH   1   9
ATOM      9  C2  <0> d           0.002  -0.004   0.002  0.00  0.00    -0.006 C 
ATOM     10  C1  <0> d          -0.016   1.314   0.009  0.00  0.00    -0.105 C 
ATOM     11  H1  <0> d           0.912   1.867   0.003  0.00  0.00     0.068 H 
ATOM     12  H2  <0> d          -0.958   1.842   0.017  0.00  0.00     0.068 H 
ATOM     13  H3  <0> d           0.945  -0.531  -0.010  0.00  0.00     0.113 H 
ENDBRANCH   1   9
TORSDOF 1
