REMARK  1 active torsions:
REMARK  status: ('A' for Active; 'I' for Inactive)
REMARK    1  A    between atoms: C7_9  and  N3_10 
ROOT
ATOM      1  C1  <0> d          -0.707  -2.254  -0.003  0.00  0.00    -0.042 A 
ATOM      2  C2  <0> d          -0.994  -0.938   0.006  0.00  0.00    -0.012 A 
ATOM      3  N1  <0> d           0.002  -0.004   0.002  0.00  0.00    -0.316 N 
ATOM      4  C3  <0> d          -0.017   1.368   0.010  0.00  0.00     0.003 A 
ATOM      5  C4  <0> d           1.267   1.784  -0.001  0.00  0.00     0.020 A 
ATOM      6  N2  <0> d           2.064   0.712  -0.014  0.00  0.00    -0.241 NA
ATOM      7  C5  <0> d           1.319  -0.386  -0.013  0.00  0.00     0.135 A 
ATOM      8  C6  <0> d           1.649  -1.753  -0.023  0.00  0.00    -0.013 A 
ATOM      9  C7  <0> d           0.637  -2.688  -0.018  0.00  0.00     0.030 A 
ATOM     10  H1  <0> d          -1.506  -2.980   0.002  0.00  0.00     0.089 H 
ATOM     11  H2  <0> d          -2.025  -0.618   0.018  0.00  0.00     0.112 H 
ATOM     12  H3  <0> d          -0.894   1.997   0.017  0.00  0.00     0.114 H 
ATOM     13  H4  <0> d           1.595   2.813   0.002  0.00  0.00     0.117 H 
ATOM     14  H5  <0> d           2.683  -2.066  -0.034  0.00  0.00     0.092 H 
ENDROOT
BRANCH   9  15
ATOM     15  N3  <0> d           0.936  -4.047  -0.027  0.00  0.00    -0.399 N 
ATOM     16  H6  <0> d           1.860  -4.340  -0.037  0.00  0.00     0.156 HD
ATOM     17  H7  <0> d           0.220  -4.701  -0.023  0.00  0.00     0.156 HD
ENDBRANCH   9  15
TORSDOF 1
