REMARK  5 active torsions:
REMARK  status: ('A' for Active; 'I' for Inactive)
REMARK    1  A    between atoms: C1_1  and  C2_2 
REMARK    2  A    between atoms: C2_2  and  C3_3 
REMARK    3  A    between atoms: C3_3  and  C4_4 
REMARK    4  A    between atoms: C3_3  and  C5_5 
REMARK    5  A    between atoms: C3_3  and  N1_6 
REMARK       I    between atoms: N1_6  and  C6_7 
REMARK       I    between atoms: C6_7  and  N2_9 
ROOT
ATOM      1  C3  <0> d           1.248   1.716  -0.001  0.00  0.00     0.027 C 
ENDROOT
BRANCH   1   2
ATOM      2  C2  <0> d           2.424   0.737  -0.017  0.00  0.00    -0.046 C 
ATOM      3  H4  <0> d           2.383   0.105   0.870  0.00  0.00     0.036 H 
ATOM      4  H5  <0> d           2.366   0.115  -0.910  0.00  0.00     0.036 H 
BRANCH   2   5
ATOM      5  C1  <0> d           3.738   1.520  -0.025  0.00  0.00    -0.074 C 
ATOM      6  H1  <0> d           3.796   2.143   0.867  0.00  0.00     0.027 H 
ATOM      7  H2  <0> d           4.576   0.823  -0.037  0.00  0.00     0.027 H 
ATOM      8  H3  <0> d           3.779   2.152  -0.912  0.00  0.00     0.027 H 
ENDBRANCH   2   5
ENDBRANCH   1   2
BRANCH   1   9
ATOM      9  C4  <0> d           1.305   2.603  -1.246  0.00  0.00    -0.053 C 
ATOM     10  H6  <0> d           0.467   3.300  -1.234  0.00  0.00     0.030 H 
ATOM     11  H7  <0> d           2.241   3.161  -1.252  0.00  0.00     0.030 H 
ATOM     12  H8  <0> d           1.247   1.980  -2.139  0.00  0.00     0.030 H 
ENDBRANCH   1   9
BRANCH   1  13
ATOM     13  C5  <0> d           1.329   2.589   1.253  0.00  0.00    -0.053 C 
ATOM     14  H9  <0> d           1.288   1.957   2.140  0.00  0.00     0.030 H 
ATOM     15  H10 <0> d           2.265   3.147   1.247  0.00  0.00     0.030 H 
ATOM     16  H11 <0> d           0.491   3.286   1.264  0.00  0.00     0.030 H 
ENDBRANCH   1  13
BRANCH   1  17
ATOM     17  N1  <0> d          -0.011   0.966   0.007  0.00  0.00    -0.335 N 
ATOM     18  C6  <0> d          -1.187   1.624   0.017  0.00  0.00     0.314 C 
ATOM     19  O1  <0> d          -1.204   2.840   0.023  0.00  0.00    -0.248 OA
ATOM     20  N2  <0> d          -2.345   0.934   0.018  0.00  0.00    -0.352 N 
ATOM     21  H13 <0> d          -2.332  -0.036   0.013  0.00  0.00     0.160 HD
ATOM     22  H14 <0> d          -3.192   1.408   0.025  0.00  0.00     0.160 HD
ATOM     23  H12 <0> d           0.002  -0.004   0.002  0.00  0.00     0.165 HD
ENDBRANCH   1  17
TORSDOF 5
