REMARK  2 active torsions:
REMARK  status: ('A' for Active; 'I' for Inactive)
REMARK    1  A    between atoms: C1_1  and  C2_2 
REMARK    2  A    between atoms: C4_4  and  C6_7 
ROOT
ATOM      1  C2  <0> d          -0.780   3.144   0.026  0.00  0.00     0.049 A 
ATOM      2  C3  <0> d           0.557   3.262   0.014  0.00  0.00    -0.036 A 
ATOM      3  C4  <0> d           1.083   1.889   0.002  0.00  0.00     0.065 A 
ATOM      4  C5  <0> d          -0.013   1.076   0.008  0.00  0.00     0.035 A 
ATOM      5  O1  <0> d          -1.107   1.843   0.017  0.00  0.00    -0.326 OA
ATOM      6  H4  <0> d           1.129   4.178   0.014  0.00  0.00     0.089 H 
ATOM      7  H5  <0> d           0.002  -0.004   0.002  0.00  0.00     0.125 H 
ENDROOT
BRANCH   1   8
ATOM      8  C1  <0> d          -1.758   4.291   0.042  0.00  0.00    -0.031 C 
ATOM      9  H1  <0> d          -2.003   4.573  -0.982  0.00  0.00     0.036 H 
ATOM     10  H2  <0> d          -2.666   3.987   0.563  0.00  0.00     0.036 H 
ATOM     11  H3  <0> d          -1.311   5.142   0.556  0.00  0.00     0.036 H 
ENDBRANCH   1   8
BRANCH   3  12
ATOM     12  C6  <0> d           2.497   1.478  -0.014  0.00  0.00     0.211 C 
ATOM     13  O2  <0> d           3.374   2.319  -0.018  0.00  0.00    -0.644 OA
ATOM     14  O3  <0> d           2.818   0.170  -0.024  0.00  0.00    -0.644 OA
ENDBRANCH   3  12
TORSDOF 2
