REMARK  9 active torsions:
REMARK  status: ('A' for Active; 'I' for Inactive)
REMARK    1  A    between atoms: C1_1  and  C2_2 
REMARK    2  A    between atoms: C2_2  and  C3_3 
REMARK    3  A    between atoms: C3_3  and  C4_4 
REMARK    4  A    between atoms: C4_4  and  C5_6 
REMARK    5  A    between atoms: C4_4  and  C6_7 
REMARK    6  A    between atoms: C6_7  and  O2_9 
REMARK    7  A    between atoms: O2_9  and  C7_10 
REMARK    8  A    between atoms: C7_10  and  C8_11 
REMARK    9  A    between atoms: C7_10  and  C9_12 
ROOT
ATOM      1  C4  <0> d          -1.329   1.940   0.019  0.00  0.00     0.027 C 
ATOM      2  H1  <0> d          -1.400   2.570  -0.867  0.00  0.00     0.054 H 
ENDROOT
BRANCH   1   3
ATOM      3  C3  <0> d          -2.479   0.930   0.019  0.00  0.00    -0.054 C 
ATOM      4  H7  <0> d          -2.367   0.252  -0.827  0.00  0.00     0.034 H 
ATOM      5  H8  <0> d          -2.461   0.359   0.947  0.00  0.00     0.034 H 
BRANCH   3   6
ATOM      6  C2  <0> d          -3.811   1.673  -0.097  0.00  0.00    -0.068 C 
ATOM      7  H5  <0> d          -3.923   2.351   0.750  0.00  0.00     0.032 H 
ATOM      8  H6  <0> d          -3.829   2.244  -1.025  0.00  0.00     0.032 H 
BRANCH   6   9
ATOM      9  C1  <0> d          -4.960   0.663  -0.097  0.00  0.00    -0.076 C 
ATOM     10  H2  <0> d          -5.910   1.193  -0.179  0.00  0.00     0.027 H 
ATOM     11  H3  <0> d          -4.848  -0.015  -0.943  0.00  0.00     0.027 H 
ATOM     12  H4  <0> d          -4.942   0.092   0.832  0.00  0.00     0.027 H 
ENDBRANCH   6   9
ENDBRANCH   3   6
ENDBRANCH   1   3
BRANCH   1  13
ATOM     13  C5  <0> d          -1.417   2.811   1.273  0.00  0.00    -0.064 C 
ATOM     14  H9  <0> d          -1.346   2.181   2.160  0.00  0.00     0.028 H 
ATOM     15  H10 <0> d          -0.598   3.531   1.273  0.00  0.00     0.028 H 
ATOM     16  H11 <0> d          -2.368   3.344   1.281  0.00  0.00     0.028 H 
ENDBRANCH   1  13
BRANCH   1  17
ATOM     17  C6  <0> d          -0.014   1.204   0.009  0.00  0.00     0.263 C 
ATOM     18  O1  <0> d           0.002  -0.004   0.002  0.00  0.00    -0.265 OA
BRANCH  17  19
ATOM     19  O2  <0> d           1.139   1.891   0.001  0.00  0.00    -0.317 OA
BRANCH  19  20
ATOM     20  C7  <0> d           2.367   1.117  -0.015  0.00  0.00     0.041 C 
ATOM     21  H12 <0> d           2.195   0.173  -0.532  0.00  0.00     0.083 H 
BRANCH  20  22
ATOM     22  C8  <0> d           3.458   1.906  -0.742  0.00  0.00    -0.052 C 
ATOM     23  H13 <0> d           3.630   2.849  -0.225  0.00  0.00     0.030 H 
ATOM     24  H14 <0> d           4.380   1.325  -0.754  0.00  0.00     0.030 H 
ATOM     25  H15 <0> d           3.141   2.105  -1.766  0.00  0.00     0.030 H 
ENDBRANCH  20  22
BRANCH  20  26
ATOM     26  C9  <0> d           2.812   0.837   1.422  0.00  0.00    -0.052 C 
ATOM     27  H16 <0> d           2.985   1.781   1.940  0.00  0.00     0.030 H 
ATOM     28  H17 <0> d           2.035   0.275   1.940  0.00  0.00     0.030 H 
ATOM     29  H18 <0> d           3.735   0.256   1.410  0.00  0.00     0.030 H 
ENDBRANCH  20  26
ENDBRANCH  19  20
ENDBRANCH  17  19
ENDBRANCH   1  17
TORSDOF 9
