REMARK  0 active torsions:
REMARK  status: ('A' for Active; 'I' for Inactive)
ROOT
ATOM      1  C1  <0> d           0.002  -0.004   0.002  0.00  0.00    -0.079 A 
ATOM      2  C2  <0> d           1.202  -0.689  -0.013  0.00  0.00    -0.061 A 
ATOM      3  C3  <0> d           2.406   0.013  -0.021  0.00  0.00     0.068 A 
ATOM      4  C4  <0> d           2.390   1.422  -0.013  0.00  0.00     0.103 A 
ATOM      5  C5  <0> d           1.167   2.096   0.002  0.00  0.00     0.138 A 
ATOM      6  C6  <0> d          -0.017   1.379   0.010  0.00  0.00    -0.044 A 
ATOM      7  F1  <0> d           1.140   3.447   0.009  0.00  0.00    -0.204 F 
ATOM      8  C7  <0> d           3.619   2.157  -0.021  0.00  0.00     0.104 C 
ATOM      9  N1  <0> d           4.594   2.740  -0.028  0.00  0.00    -0.191 NA
ATOM     10  C8  <0> d           3.651  -0.694  -0.037  0.00  0.00     0.101 C 
ATOM     11  N2  <0> d           4.639  -1.254  -0.049  0.00  0.00    -0.191 NA
ATOM     12  H1  <0> d          -0.928  -0.553   0.008  0.00  0.00     0.083 H 
ATOM     13  H2  <0> d           1.207  -1.769  -0.019  0.00  0.00     0.085 H 
ATOM     14  H3  <0> d          -0.961   1.903   0.017  0.00  0.00     0.088 H 
ENDROOT
TORSDOF 0
