REMARK  3 active torsions:
REMARK  status: ('A' for Active; 'I' for Inactive)
REMARK    1  A    between atoms: C1_1  and  C2_2 
REMARK    2  A    between atoms: C2_2  and  O1_3 
REMARK    3  A    between atoms: O1_3  and  C3_4 
ROOT
ATOM      1  C3  <0> d          -0.793   3.322   1.347  0.00  0.00     0.248 A 
ATOM      2  N1  <0> d          -1.424   3.813   2.445  0.00  0.00    -0.285 N 
ATOM      3  H1  <0> d          -1.848   3.124   3.190  0.00  0.00     0.172 HD
ATOM      4  C4  <0> d          -1.530   5.148   2.618  0.00  0.00     0.288 A 
ATOM      5  O2  <0> d          -2.089   5.606   3.601  0.00  0.00    -0.265 OA
ATOM      6  C5  <0> d          -0.985   6.002   1.639  0.00  0.00     0.201 A 
ATOM      7  C6  <0> d          -0.367   5.449   0.555  0.00  0.00     0.049 A 
ATOM      8  N2  <0> d          -0.286   4.123   0.436  0.00  0.00    -0.218 NA
ATOM      9  F1  <0> d          -1.074   7.343   1.770  0.00  0.00    -0.199 F 
ATOM     10  H7  <0> d           0.056   6.086  -0.208  0.00  0.00     0.120 H 
ENDROOT
BRANCH   1  11
ATOM     11  O1  <0> d          -0.688   1.987   1.186  0.00  0.00    -0.321 OA
BRANCH  11  12
ATOM     12  C2  <0> d          -0.019   1.526   0.010  0.00  0.00     0.026 C 
ATOM     13  H5  <0> d           1.013   1.907   0.003  0.00  0.00     0.074 H 
ATOM     14  H6  <0> d          -0.551   1.890  -0.881  0.00  0.00     0.074 H 
BRANCH  12  15
ATOM     15  C1  <0> d           0.002  -0.004   0.002  0.00  0.00    -0.056 C 
ATOM     16  H2  <0> d           0.517  -0.359  -0.903  0.00  0.00     0.030 H 
ATOM     17  H3  <0> d          -1.030  -0.385   0.010  0.00  0.00     0.030 H 
ATOM     18  H4  <0> d           0.534  -0.368   0.893  0.00  0.00     0.030 H 
ENDBRANCH  12  15
ENDBRANCH  11  12
ENDBRANCH   1  11
TORSDOF 3
