REMARK  0 active torsions:
REMARK  status: ('A' for Active; 'I' for Inactive)
ROOT
ATOM      1  C1  <0> d          -0.019   1.540   0.011  0.00  0.00    -0.043 C 
ATOM      2  C2  <0> d           1.488   1.881  -0.002  0.00  0.00    -0.006 C 
ATOM      3  C3  <0> d           2.152   0.667   0.610  0.00  0.00     0.132 A 
ATOM      4  N1  <0> d           3.264   0.249   1.150  0.00  0.00    -0.132 NA
ATOM      5  N2  <0> d           3.152  -0.987   1.483  0.00  0.00    -0.101 NA
ATOM      6  C4  <0> d           1.958  -1.426   1.171  0.00  0.00     0.299 A 
ATOM      7  O1  <0> d           1.481  -2.679   1.373  0.00  0.00    -0.147 OA
ATOM      8  N3  <0> d           1.286  -0.385   0.602  0.00  0.00    -0.295 N 
ATOM      9  C5  <0> d           0.002  -0.004   0.002  0.00  0.00     0.005 C 
ATOM     10  H1  <0> d          -0.496   1.918   0.915  0.00  0.00     0.035 H 
ATOM     11  H2  <0> d          -0.513   1.927  -0.880  0.00  0.00     0.035 H 
ATOM     12  H3  <0> d           1.837   2.031  -1.024  0.00  0.00     0.044 H 
ATOM     13  H4  <0> d           1.684   2.767   0.602  0.00  0.00     0.044 H 
ATOM     14  H5  <0> d          -0.823  -0.395   0.597  0.00  0.00     0.065 H 
ATOM     15  H6  <0> d          -0.061  -0.376  -1.021  0.00  0.00     0.065 H 
ENDROOT
TORSDOF 0
