REMARK  1 active torsions:
REMARK  status: ('A' for Active; 'I' for Inactive)
REMARK    1  A    between atoms: C4_4  and  C7_7 
ROOT
ATOM      1  C1  <0> d          -0.256   5.469  -2.704  0.00  0.00    -0.083 A 
ATOM      2  C2  <0> d          -0.716   4.391  -3.436  0.00  0.00    -0.082 A 
ATOM      3  C3  <0> d          -1.005   3.197  -2.801  0.00  0.00    -0.076 A 
ATOM      4  C4  <0> d          -0.834   3.082  -1.435  0.00  0.00    -0.054 A 
ATOM      5  C5  <0> d          -0.379   4.162  -0.701  0.00  0.00    -0.076 A 
ATOM      6  C6  <0> d          -0.085   5.354  -1.337  0.00  0.00    -0.082 A 
ATOM      7  H1  <0> d          -0.030   6.402  -3.199  0.00  0.00     0.083 H 
ATOM      8  H2  <0> d          -0.849   4.481  -4.504  0.00  0.00     0.083 H 
ATOM      9  H3  <0> d          -1.365   2.355  -3.374  0.00  0.00     0.084 H 
ATOM     10  H4  <0> d          -0.250   4.073   0.367  0.00  0.00     0.084 H 
ATOM     11  H5  <0> d           0.274   6.197  -0.764  0.00  0.00     0.083 H 
ENDROOT
BRANCH   4  12
ATOM     12  C7  <0> d          -1.150   1.781  -0.743  0.00  0.00    -0.029 A 
ATOM     13  C9  <0> d          -1.136   1.773   0.788  0.00  0.00    -0.057 A 
ATOM     14  C8  <0> d          -0.013   1.086   0.008  0.00  0.00    -0.057 A 
ATOM     15  H9  <0> d          -1.106   2.808   1.160  0.00  0.00     0.034 H 
ATOM     16  H10 <0> d          -2.043   1.275   1.161  0.00  0.00     0.034 H 
ATOM     17  H7  <0> d           0.008   0.020  -0.264  0.00  0.00     0.034 H 
ATOM     18  H8  <0> d           0.946   1.552  -0.264  0.00  0.00     0.034 H 
ATOM     19  H6  <0> d          -1.870   1.488  -1.522  0.00  0.00     0.047 H 
ENDBRANCH   4  12
TORSDOF 1
