REMARK  2 active torsions:
REMARK  status: ('A' for Active; 'I' for Inactive)
REMARK    1  A    between atoms: C1_1  and  C2_2 
REMARK    2  A    between atoms: N2_8  and  C8_11 
ROOT
ATOM      1  C2  <0> d           2.307  -0.003  -0.021  0.00  0.00     0.033 A 
ATOM      2  C3  <0> d           2.359   1.384  -0.013  0.00  0.00    -0.059 A 
ATOM      3  C4  <0> d           1.195   2.106   0.002  0.00  0.00    -0.066 A 
ATOM      4  C5  <0> d          -0.017   1.405   0.010  0.00  0.00     0.031 A 
ATOM      5  C6  <0> d          -1.421   1.799   0.031  0.00  0.00     0.035 A 
ATOM      6  N1  <0> d          -2.137   0.711   0.027  0.00  0.00    -0.183 NA
ATOM      7  N2  <0> d          -1.304  -0.412   0.013  0.00  0.00    -0.256 N 
ATOM      8  C7  <0> d           0.002  -0.004   0.002  0.00  0.00     0.157 A 
ATOM      9  N3  <0> d           1.162  -0.649  -0.013  0.00  0.00    -0.234 NA
ATOM     10  H4  <0> d           3.312   1.892  -0.020  0.00  0.00     0.086 H 
ATOM     11  H5  <0> d           1.211   3.186   0.008  0.00  0.00     0.085 H 
ATOM     12  H6  <0> d          -1.799   2.811   0.042  0.00  0.00     0.118 H 
ENDROOT
BRANCH   1  13
ATOM     13  C1  <0> d           3.594  -0.786  -0.038  0.00  0.00    -0.035 C 
ATOM     14  H1  <0> d           3.894  -0.970  -1.069  0.00  0.00     0.035 H 
ATOM     15  H2  <0> d           4.373  -0.218   0.471  0.00  0.00     0.035 H 
ATOM     16  H3  <0> d           3.447  -1.738   0.472  0.00  0.00     0.035 H 
ENDBRANCH   1  13
BRANCH   7  17
ATOM     17  C8  <0> d          -1.758  -1.805   0.010  0.00  0.00     0.004 C 
ATOM     18  H7  <0> d          -1.860  -2.156   1.037  0.00  0.00     0.059 H 
ATOM     19  H8  <0> d          -2.721  -1.872  -0.495  0.00  0.00     0.059 H 
ATOM     20  H9  <0> d          -1.029  -2.423  -0.515  0.00  0.00     0.059 H 
ENDBRANCH   7  17
TORSDOF 2
