REMARK  2 active torsions:
REMARK  status: ('A' for Active; 'I' for Inactive)
REMARK    1  A    between atoms: C3_3  and  N4_8 
REMARK    2  A    between atoms: C4_4  and  N3_7 
ROOT
ATOM      1  C1  <0> d           1.070   3.512   0.011  0.00  0.00     0.047 A 
ATOM      2  C2  <0> d           1.166   2.128   0.002  0.00  0.00     0.083 A 
ATOM      3  C3  <0> d          -0.017   1.392   0.010  0.00  0.00     0.097 A 
ATOM      4  C4  <0> d          -1.226   2.100   0.019  0.00  0.00     0.171 A 
ATOM      5  N1  <0> d          -1.209   3.422   0.033  0.00  0.00    -0.130 NA
ATOM      6  N2  <0> d          -0.114   4.092   0.026  0.00  0.00    -0.159 NA
ATOM      7 Cl1  <0> d           2.712   1.339  -0.016  0.00  0.00    -0.080 Cl
ATOM      8  H1  <0> d           1.966   4.116   0.005  0.00  0.00     0.120 H 
ENDROOT
BRANCH   3   9
ATOM      9  N4  <0> d           0.002  -0.004   0.002  0.00  0.00    -0.395 N 
ATOM     10  H4  <0> d           0.849  -0.478  -0.009  0.00  0.00     0.156 HD
ATOM     11  H5  <0> d          -0.831  -0.500   0.007  0.00  0.00     0.156 HD
ENDBRANCH   3   9
BRANCH   4  12
ATOM     12  N3  <0> d          -2.440   1.415   0.021  0.00  0.00    -0.381 N 
ATOM     13  H2  <0> d          -2.449   0.445   0.016  0.00  0.00     0.157 HD
ATOM     14  H3  <0> d          -3.275   1.908   0.028  0.00  0.00     0.157 HD
ENDBRANCH   4  12
TORSDOF 2
