REMARK  4 active torsions:
REMARK  status: ('A' for Active; 'I' for Inactive)
REMARK    1  A    between atoms: C1_1  and  N1_2 
REMARK    2  A    between atoms: N1_2  and  C2_3 
REMARK    3  A    between atoms: N1_2  and  C3_4 
REMARK    4  A    between atoms: C6_7  and  C9_10 
ROOT
ATOM      1  C9  <0> d           1.244  -2.116  -0.016  0.00  0.00    -0.078 C 
ATOM      2  C10 <0> d           1.262  -3.290  -0.021  0.00  0.00    -0.149 C 
ATOM      3  H11 <0> d           1.279  -4.340  -0.026  0.00  0.00     0.166 H 
ENDROOT
BRANCH   1   4
ATOM      4  C6  <0> d           1.221  -0.684  -0.010  0.00  0.00     0.017 A 
ATOM      5  C5  <0> d           0.002  -0.004   0.020  0.00  0.00    -0.063 A 
ATOM      6  C4  <0> d          -0.017   1.374   0.026  0.00  0.00    -0.056 A 
ATOM      7  H8  <0> d          -0.925  -0.557   0.037  0.00  0.00     0.085 H 
ATOM      8  C3  <0> d           1.177   2.087   0.003  0.00  0.00     0.029 A 
ATOM      9  H7  <0> d          -0.959   1.901   0.045  0.00  0.00     0.087 H 
ATOM     10  C8  <0> d           2.393   1.412  -0.026  0.00  0.00    -0.056 A 
ATOM     11  C7  <0> d           2.418   0.034  -0.033  0.00  0.00    -0.063 A 
ATOM     12  H10 <0> d           3.318   1.969  -0.045  0.00  0.00     0.087 H 
ATOM     13  H9  <0> d           3.362  -0.489  -0.056  0.00  0.00     0.085 H 
BRANCH   8  14
ATOM     14  N1  <0> d           1.155   3.482   0.010  0.00  0.00    -0.390 N 
BRANCH  14  15
ATOM     15  C1  <0> d          -0.121   4.195  -0.086  0.00  0.00    -0.019 C 
ATOM     16  H1  <0> d          -0.518   4.365   0.915  0.00  0.00     0.056 H 
ATOM     17  H2  <0> d           0.034   5.152  -0.584  0.00  0.00     0.056 H 
ATOM     18  H3  <0> d          -0.829   3.597  -0.660  0.00  0.00     0.056 H 
ENDBRANCH  14  15
BRANCH  14  19
ATOM     19  C2  <0> d           2.408   4.234   0.112  0.00  0.00    -0.019 C 
ATOM     20  H4  <0> d           3.250   3.542   0.084  0.00  0.00     0.056 H 
ATOM     21  H5  <0> d           2.482   4.932  -0.721  0.00  0.00     0.056 H 
ATOM     22  H6  <0> d           2.424   4.787   1.052  0.00  0.00     0.056 H 
ENDBRANCH  14  19
ENDBRANCH   8  14
ENDBRANCH   1   4
TORSDOF 4
