REMARK  3 active torsions:
REMARK  status: ('A' for Active; 'I' for Inactive)
REMARK    1  A    between atoms: C3_3  and  C7_9 
REMARK    2  A    between atoms: C4_4  and  O2_8 
REMARK    3  A    between atoms: C6_6  and  O1_7 
REMARK       I    between atoms: C7_9  and  N1_11 
ROOT
ATOM      1  C1  <0> d           1.859   1.821   1.201  0.00  0.00    -0.050 A 
ATOM      2  C2  <0> d           3.111   2.392   1.201  0.00  0.00    -0.062 A 
ATOM      3  C3  <0> d           3.740   2.695  -0.010  0.00  0.00     0.065 A 
ATOM      4  C4  <0> d           3.093   2.408  -1.222  0.00  0.00     0.084 A 
ATOM      5  C5  <0> d           1.837   1.828  -1.209  0.00  0.00    -0.018 A 
ATOM      6  C6  <0> d           1.221   1.532  -0.001  0.00  0.00     0.068 A 
ATOM      7  H1  <0> d           1.372   1.592   2.137  0.00  0.00     0.087 H 
ATOM      8  H2  <0> d           3.605   2.611   2.136  0.00  0.00     0.085 H 
ATOM      9  H3  <0> d           1.335   1.605  -2.139  0.00  0.00     0.092 H 
ENDROOT
BRANCH   3  10
ATOM     10  C7  <0> d           5.078   3.312  -0.014  0.00  0.00     0.252 C 
ATOM     11  O3  <0> d           5.623   3.575  -1.069  0.00  0.00    -0.268 OA
ATOM     12  N1  <0> d           5.697   3.587   1.151  0.00  0.00    -0.366 N 
ATOM     13  H6  <0> d           5.262   3.378   1.992  0.00  0.00     0.159 HD
ATOM     14  H7  <0> d           6.578   3.993   1.148  0.00  0.00     0.159 HD
ENDBRANCH   3  10
BRANCH   4  15
ATOM     15  O2  <0> d           3.697   2.698  -2.401  0.00  0.00    -0.360 OA
ATOM     16  H5  <0> d           3.501   3.584  -2.736  0.00  0.00     0.217 HD
ENDBRANCH   4  15
BRANCH   6  17
ATOM     17  O1  <0> d          -0.011   0.963   0.007  0.00  0.00    -0.361 OA
ATOM     18  H4  <0> d           0.002  -0.004   0.002  0.00  0.00     0.217 HD
ENDBRANCH   6  17
TORSDOF 3
