REMARK  8 active torsions:
REMARK  status: ('A' for Active; 'I' for Inactive)
REMARK    1  A    between atoms: C1_1  and  C2_2 
REMARK    2  A    between atoms: C2_2  and  C3_3 
REMARK    3  A    between atoms: C3_3  and  C4_5 
REMARK    4  A    between atoms: C3_3  and  O1_7 
REMARK    5  A    between atoms: O1_7  and  C6_8 
REMARK    6  A    between atoms: C6_8  and  C7_10 
REMARK    7  A    between atoms: C7_10  and  C8_11 
REMARK    8  A    between atoms: C7_10  and  C9_12 
ROOT
ATOM      1  C3  <0> d          -1.433  -0.534   0.013  0.00  0.00     0.063 C 
ATOM      2  H1  <0> d          -1.970  -0.111   0.862  0.00  0.00     0.090 H 
ENDROOT
BRANCH   1   3
ATOM      3  C2  <0> d           0.002  -0.004   0.002  0.00  0.00    -0.041 C 
ATOM      4  H5  <0> d           0.512  -0.356  -0.895  0.00  0.00     0.036 H 
ATOM      5  H6  <0> d           0.529  -0.365   0.885  0.00  0.00     0.036 H 
BRANCH   3   6
ATOM      6  C1  <0> d          -0.019   1.526   0.010  0.00  0.00    -0.074 C 
ATOM      7  H2  <0> d           1.004   1.903   0.003  0.00  0.00     0.027 H 
ATOM      8  H3  <0> d          -0.546   1.887  -0.873  0.00  0.00     0.027 H 
ATOM      9  H4  <0> d          -0.529   1.877   0.907  0.00  0.00     0.027 H 
ENDBRANCH   3   6
ENDBRANCH   1   3
BRANCH   1  10
ATOM     10  C4  <0> d          -1.414  -2.036   0.129  0.00  0.00    -0.084 C 
ATOM     11  C5  <0> d          -1.992  -2.622   1.147  0.00  0.00    -0.122 C 
ATOM     12  H8  <0> d          -1.978  -3.699   1.230  0.00  0.00     0.066 H 
ATOM     13  H9  <0> d          -2.484  -2.029   1.904  0.00  0.00     0.066 H 
ATOM     14  H7  <0> d          -0.922  -2.630  -0.628  0.00  0.00     0.079 H 
ENDBRANCH   1  10
BRANCH   1  15
ATOM     15  O1  <0> d          -2.089  -0.158  -1.200  0.00  0.00    -0.312 OA
BRANCH  15  16
ATOM     16  C6  <0> d          -2.739   1.017  -1.203  0.00  0.00     0.263 C 
ATOM     17  O2  <0> d          -2.751   1.703  -0.208  0.00  0.00    -0.265 OA
BRANCH  16  18
ATOM     18  C7  <0> d          -3.454   1.479  -2.446  0.00  0.00     0.023 C 
ATOM     19  H10 <0> d          -4.221   0.753  -2.716  0.00  0.00     0.054 H 
BRANCH  18  20
ATOM     20  C8  <0> d          -4.107   2.838  -2.183  0.00  0.00    -0.065 C 
ATOM     21  H11 <0> d          -3.340   3.564  -1.914  0.00  0.00     0.028 H 
ATOM     22  H12 <0> d          -4.624   3.172  -3.082  0.00  0.00     0.028 H 
ATOM     23  H13 <0> d          -4.822   2.745  -1.366  0.00  0.00     0.028 H 
ENDBRANCH  18  20
BRANCH  18  24
ATOM     24  C9  <0> d          -2.449   1.610  -3.593  0.00  0.00    -0.065 C 
ATOM     25  H14 <0> d          -1.682   2.336  -3.323  0.00  0.00     0.028 H 
ATOM     26  H15 <0> d          -1.984   0.642  -3.780  0.00  0.00     0.028 H 
ATOM     27  H16 <0> d          -2.966   1.945  -4.492  0.00  0.00     0.028 H 
ENDBRANCH  18  24
ENDBRANCH  16  18
ENDBRANCH  15  16
ENDBRANCH   1  15
TORSDOF 8
