REMARK  2 active torsions:
REMARK  status: ('A' for Active; 'I' for Inactive)
REMARK    1  A    between atoms: C2_2  and  O4_14 
REMARK    2  A    between atoms: C5_9  and  O3_13 
ROOT
ATOM      1  C1  <0> d          -0.609   1.609   1.325  0.00  0.00     0.046 C 
ATOM      2  C2  <0> d          -0.013   1.086   0.008  0.00  0.00     0.083 C 
ATOM      3  H1  <0> d           0.002  -0.004   0.002  0.00  0.00     0.090 H 
ATOM      4  C3  <0> d           1.423   1.645  -0.003  0.00  0.00     0.092 C 
ATOM      5  H2  <0> d           1.773   1.886  -1.006  0.00  0.00     0.091 H 
ATOM      6  C4  <0> d           1.326   2.892   0.918  0.00  0.00     0.092 C 
ATOM      7  H3  <0> d           1.226   3.818   0.353  0.00  0.00     0.091 H 
ATOM      8  O1  <0> d           0.225   2.664   1.803  0.00  0.00    -0.378 OA
ATOM      9  C5  <0> d           2.637   2.842   1.738  0.00  0.00     0.083 C 
ATOM     10  H4  <0> d           2.418   2.760   2.802  0.00  0.00     0.090 H 
ATOM     11  C6  <0> d           3.352   1.570   1.233  0.00  0.00     0.046 C 
ATOM     12  O2  <0> d           2.296   0.739   0.701  0.00  0.00    -0.378 OA
ATOM     13  H5  <0> d          -1.616   1.987   1.149  0.00  0.00     0.078 H 
ATOM     14  H6  <0> d          -0.641   0.804   2.060  0.00  0.00     0.078 H 
ATOM     15  H7  <0> d           4.068   1.822   0.451  0.00  0.00     0.078 H 
ATOM     16  H8  <0> d           3.853   1.064   2.059  0.00  0.00     0.078 H 
ENDROOT
BRANCH   2  17
ATOM     17  O4  <0> d          -0.751   1.581  -1.110  0.00  0.00    -0.391 OA
ATOM     18  H10 <0> d          -1.671   1.284  -1.137  0.00  0.00     0.210 HD
ENDBRANCH   2  17
BRANCH   9  19
ATOM     19  O3  <0> d           3.432   4.001   1.479  0.00  0.00    -0.391 OA
ATOM     20  H9  <0> d           4.266   4.023   1.968  0.00  0.00     0.210 HD
ENDBRANCH   9  19
TORSDOF 2
