REMARK  0 active torsions:
REMARK  status: ('A' for Active; 'I' for Inactive)
ROOT
ATOM      1  C1  <0> d           3.220   2.625  -0.014  0.00  0.00     0.021 A 
ATOM      2  C2  <0> d           2.725   3.921  -0.003  0.00  0.00     0.021 A 
ATOM      3  N1  <0> d           1.424   4.140   0.010  0.00  0.00    -0.237 NA
ATOM      4  C3  <0> d           0.580   3.111   0.013  0.00  0.00     0.197 A 
ATOM      5  C4  <0> d           1.088   1.797   0.001  0.00  0.00     0.176 A 
ATOM      6  N2  <0> d           2.395   1.594  -0.012  0.00  0.00    -0.238 NA
ATOM      7  N3  <0> d          -0.011   0.966   0.007  0.00  0.00    -0.332 N 
ATOM      8  H1  <0> d           0.003  -0.034   0.006  0.00  0.00     0.168 HD
ATOM      9  C5  <0> d          -1.118   1.756   0.016  0.00  0.00     0.068 A 
ATOM     10  N4  <0> d          -0.772   3.011   0.025  0.00  0.00    -0.221 NA
ATOM     11  H2  <0> d           4.287   2.459  -0.025  0.00  0.00     0.117 H 
ATOM     12  H3  <0> d           3.409   4.756  -0.006  0.00  0.00     0.117 H 
ATOM     13  H4  <0> d          -2.135   1.395   0.019  0.00  0.00     0.143 H 
ENDROOT
TORSDOF 0
