REMARK  0 active torsions:
REMARK  status: ('A' for Active; 'I' for Inactive)
ROOT
ATOM      1  C1  <0> d          -0.019   1.540   0.011  0.00  0.00    -0.061 C 
ATOM      2  C2  <0> d           1.451   1.996  -0.001  0.00  0.00    -0.061 C 
ATOM      3  C3  <0> d           2.307   0.711  -0.016  0.00  0.00    -0.047 C 
ATOM      4  H1  <0> d           3.243   0.828   0.531  0.00  0.00     0.040 H 
ATOM      5  C4  <0> d           1.382  -0.362   0.613  0.00  0.00    -0.058 C 
ATOM      6  C5  <0> d           0.002  -0.004   0.002  0.00  0.00    -0.047 C 
ATOM      7  H2  <0> d          -0.827  -0.435   0.564  0.00  0.00     0.040 H 
ATOM      8  C6  <0> d           0.032  -0.461  -1.469  0.00  0.00    -0.006 C 
ATOM      9  C7  <0> d           1.165   0.265  -2.161  0.00  0.00     0.127 C 
ATOM     10  O1  <0> d           0.991   0.798  -3.230  0.00  0.00    -0.298 OA
ATOM     11  C8  <0> d           2.535   0.321  -1.489  0.00  0.00    -0.006 C 
ATOM     12  H3  <0> d          -0.516   1.903   0.911  0.00  0.00     0.033 H 
ATOM     13  H4  <0> d          -0.533   1.912  -0.876  0.00  0.00     0.033 H 
ATOM     14  H5  <0> d           1.651   2.590  -0.893  0.00  0.00     0.033 H 
ATOM     15  H6  <0> d           1.668   2.580   0.893  0.00  0.00     0.033 H 
ATOM     16  H7  <0> d           1.690  -1.364   0.313  0.00  0.00     0.034 H 
ATOM     17  H8  <0> d           1.361  -0.269   1.698  0.00  0.00     0.034 H 
ATOM     18  H9  <0> d           0.200  -1.537  -1.517  0.00  0.00     0.044 H 
ATOM     19  H10 <0> d          -0.914  -0.213  -1.951  0.00  0.00     0.044 H 
ATOM     20  H11 <0> d           3.172   1.061  -1.972  0.00  0.00     0.044 H 
ATOM     21  H12 <0> d           3.005  -0.661  -1.541  0.00  0.00     0.044 H 
ENDROOT
TORSDOF 0
