REMARK  3 active torsions:
REMARK  status: ('A' for Active; 'I' for Inactive)
REMARK    1  A    between atoms: C1_1  and  C2_2 
REMARK    2  A    between atoms: C2_2  and  C3_3 
REMARK    3  A    between atoms: C3_3  and  C4_4 
ROOT
ATOM      1  C4  <0> d          -0.013   1.086   0.008  0.00  0.00     0.048 C 
ATOM      2  H1  <0> d           0.002  -0.004   0.002  0.00  0.00     0.084 H 
ATOM      3  C5  <0> d          -0.732   1.581   1.266  0.00  0.00    -0.040 C 
ATOM      4  C6  <0> d          -2.184   1.090   1.245  0.00  0.00    -0.054 C 
ATOM      5  C7  <0> d          -2.880   1.643  -0.005  0.00  0.00     0.016 C 
ATOM      6  C8  <0> d          -2.039   1.293  -1.213  0.00  0.00     0.259 C 
ATOM      7  O1  <0> d          -2.535   0.781  -2.188  0.00  0.00    -0.265 OA
ATOM      8  O2  <0> d          -0.719   1.569  -1.169  0.00  0.00    -0.316 OA
ATOM      9  H9  <0> d          -0.227   1.191   2.150  0.00  0.00     0.036 H 
ATOM     10  H10 <0> d          -0.717   2.671   1.288  0.00  0.00     0.036 H 
ATOM     11  H11 <0> d          -2.701   1.444   2.137  0.00  0.00     0.033 H 
ATOM     12  H12 <0> d          -2.202   0.001   1.221  0.00  0.00     0.033 H 
ATOM     13  H13 <0> d          -2.974   2.725   0.076  0.00  0.00     0.048 H 
ATOM     14  H14 <0> d          -3.869   1.194  -0.103  0.00  0.00     0.048 H 
ENDROOT
BRANCH   1  15
ATOM     15  C3  <0> d           1.422   1.617  -0.003  0.00  0.00    -0.041 C 
ATOM     16  H7  <0> d           1.407   2.703  -0.086  0.00  0.00     0.036 H 
ATOM     17  H8  <0> d           1.923   1.330   0.922  0.00  0.00     0.036 H 
BRANCH  15  18
ATOM     18  C2  <0> d           2.176   1.024  -1.195  0.00  0.00    -0.066 C 
ATOM     19  H5  <0> d           2.192  -0.063  -1.111  0.00  0.00     0.032 H 
ATOM     20  H6  <0> d           1.676   1.310  -2.120  0.00  0.00     0.032 H 
BRANCH  18  21
ATOM     21  C1  <0> d           3.611   1.555  -1.206  0.00  0.00    -0.076 C 
ATOM     22  H2  <0> d           4.148   1.133  -2.055  0.00  0.00     0.027 H 
ATOM     23  H3  <0> d           3.596   2.641  -1.289  0.00  0.00     0.027 H 
ATOM     24  H4  <0> d           4.112   1.268  -0.281  0.00  0.00     0.027 H 
ENDBRANCH  18  21
ENDBRANCH  15  18
ENDBRANCH   1  15
TORSDOF 3
