REMARK  5 active torsions:
REMARK  status: ('A' for Active; 'I' for Inactive)
REMARK    1  A    between atoms: C1_1  and  C2_2 
REMARK    2  A    between atoms: C2_2  and  C3_3 
REMARK    3  A    between atoms: C3_3  and  O1_4 
REMARK    4  A    between atoms: O1_4  and  C4_5 
REMARK    5  A    between atoms: C8_9  and  C10_11 
ROOT
ATOM      1  C4  <0> d          -1.498  -1.848   0.006  0.00  0.00     0.069 A 
ATOM      2  C5  <0> d          -0.388  -2.679  -0.014  0.00  0.00    -0.051 A 
ATOM      3  C6  <0> d          -0.552  -4.051  -0.014  0.00  0.00    -0.080 A 
ATOM      4  C7  <0> d          -1.823  -4.596  -0.005  0.00  0.00    -0.077 A 
ATOM      5  C8  <0> d          -2.932  -3.769   0.010  0.00  0.00    -0.059 A 
ATOM      6  C9  <0> d          -2.772  -2.397   0.016  0.00  0.00    -0.045 A 
ATOM      7  H8  <0> d           0.605  -2.255  -0.026  0.00  0.00     0.087 H 
ATOM      8  H9  <0> d           0.312  -4.698  -0.025  0.00  0.00     0.083 H 
ATOM      9  H10 <0> d          -1.950  -5.668  -0.010  0.00  0.00     0.084 H 
ATOM     10  H11 <0> d          -3.638  -1.752   0.028  0.00  0.00     0.088 H 
ENDROOT
BRANCH   1  11
ATOM     11  O1  <0> d          -1.339  -0.499   0.012  0.00  0.00    -0.351 OA
BRANCH  11  12
ATOM     12  C3  <0> d           0.002  -0.004   0.002  0.00  0.00     0.026 C 
ATOM     13  H6  <0> d           0.512  -0.356  -0.895  0.00  0.00     0.075 H 
ATOM     14  H7  <0> d           0.529  -0.365   0.885  0.00  0.00     0.075 H 
BRANCH  12  15
ATOM     15  C2  <0> d          -0.019   1.526   0.010  0.00  0.00    -0.048 C 
ATOM     16  H4  <0> d          -0.546   1.887  -0.873  0.00  0.00     0.035 H 
ATOM     17  H5  <0> d          -0.529   1.877   0.907  0.00  0.00     0.035 H 
BRANCH  15  18
ATOM     18  C1  <0> d           1.417   2.055  -0.000  0.00  0.00    -0.075 C 
ATOM     19  H1  <0> d           1.927   1.704  -0.897  0.00  0.00     0.027 H 
ATOM     20  H2  <0> d           1.402   3.145   0.006  0.00  0.00     0.027 H 
ATOM     21  H3  <0> d           1.944   1.694   0.883  0.00  0.00     0.027 H 
ENDBRANCH  15  18
ENDBRANCH  12  15
ENDBRANCH  11  12
ENDBRANCH   1  11
BRANCH   5  22
ATOM     22  C10 <0> d          -4.316  -4.366   0.019  0.00  0.00    -0.051 C 
ATOM     23  H12 <0> d          -4.659  -4.505  -1.006  0.00  0.00     0.033 H 
ATOM     24  H13 <0> d          -4.292  -5.330   0.528  0.00  0.00     0.033 H 
ATOM     25  H14 <0> d          -4.997  -3.696   0.543  0.00  0.00     0.033 H 
ENDBRANCH   5  22
TORSDOF 5
