REMARK  1 active torsions:
REMARK  status: ('A' for Active; 'I' for Inactive)
REMARK    1  A    between atoms: C3_3  and  C5_7 
REMARK       I    between atoms: C5_7  and  N1_9 
ROOT
ATOM      1  C1  <0> d           1.553   2.402   1.333  0.00  0.00    -0.042 C 
ATOM      2  C2  <0> d           1.429   1.629  -0.003  0.00  0.00    -0.031 C 
ATOM      3  C3  <0> d          -0.013   1.086   0.008  0.00  0.00     0.115 C 
ATOM      4  H1  <0> d          -0.061  -0.013   0.016  0.00  0.00     0.098 H 
ATOM      5  O1  <0> d          -0.639   1.560   1.212  0.00  0.00    -0.376 OA
ATOM      6  C4  <0> d           0.413   1.778   2.177  0.00  0.00     0.021 C 
ATOM      7  H2  <0> d           1.378   3.483   1.222  0.00  0.00     0.036 H 
ATOM      8  H3  <0> d           2.516   2.236   1.838  0.00  0.00     0.036 H 
ATOM      9  H4  <0> d           1.605   2.318  -0.843  0.00  0.00     0.037 H 
ATOM     10  H5  <0> d           2.175   0.821  -0.029  0.00  0.00     0.037 H 
ATOM     11  H6  <0> d           0.765   0.840   2.632  0.00  0.00     0.074 H 
ATOM     12  H7  <0> d           0.116   2.481   2.969  0.00  0.00     0.074 H 
ENDROOT
BRANCH   3  13
ATOM     13  C5  <0> d          -0.761   1.595  -1.197  0.00  0.00     0.244 C 
ATOM     14  O2  <0> d          -1.704   2.344  -1.053  0.00  0.00    -0.271 OA
ATOM     15  N1  <0> d          -0.383   1.217  -2.434  0.00  0.00    -0.368 N 
ATOM     16  H8  <0> d          -0.929   1.588  -3.314  0.00  0.00     0.159 HD
ATOM     17  H9  <0> d           0.472   0.537  -2.564  0.00  0.00     0.159 HD
ENDBRANCH   3  13
TORSDOF 1
