REMARK  3 active torsions:
REMARK  status: ('A' for Active; 'I' for Inactive)
REMARK    1  A    between atoms: C1_1  and  C2_2 
REMARK    2  A    between atoms: C2_2  and  C3_3 
REMARK    3  A    between atoms: C2_2  and  C4_4 
ROOT
ATOM      1  C4  <0> d           3.105   2.413  -1.163  0.00  0.00     0.043 A 
ATOM      2  C5  <0> d           1.850   1.834  -1.207  0.00  0.00    -0.007 A 
ATOM      3  C6  <0> d           1.219   1.531  -0.001  0.00  0.00     0.181 A 
ATOM      4  N1  <0> d           1.840   1.813   1.139  0.00  0.00    -0.329 N 
ATOM      5  C7  <0> d           3.038   2.361   1.135  0.00  0.00     0.066 A 
ATOM      6  N2  <0> d           3.662   2.660   0.013  0.00  0.00    -0.248 NA
ATOM      7  O1  <0> d          -0.011   0.963   0.007  0.00  0.00    -0.172 OA
ATOM      8  H8  <0> d           1.418   1.643  -2.088  0.00  0.00     0.093 H 
ATOM      9  H9  <0> d           3.474   2.550   2.015  0.00  0.00     0.143 H 
ATOM     10  H10 <0> d           1.342   1.585   2.093  0.00  0.00     0.168 HD
ENDROOT
BRANCH   1  11
ATOM     11  C2  <0> d           3.829   2.759  -2.438  0.00  0.00    -0.019 C 
ATOM     12  H4  <0> d           4.541   3.571  -2.229  0.00  0.00     0.048 H 
BRANCH  11  13
ATOM     13  C1  <0> d           4.580   1.528  -2.949  0.00  0.00    -0.068 C 
ATOM     14  H1  <0> d           5.308   1.202  -2.191  0.00  0.00     0.028 H 
ATOM     15  H2  <0> d           5.109   1.781  -3.880  0.00  0.00     0.028 H 
ATOM     16  H3  <0> d           3.864   0.716  -3.143  0.00  0.00     0.028 H 
ENDBRANCH  11  13
BRANCH  11  17
ATOM     17  C3  <0> d           2.818   3.213  -3.493  0.00  0.00    -0.068 C 
ATOM     18  H5  <0> d           2.278   4.098  -3.126  0.00  0.00     0.028 H 
ATOM     19  H6  <0> d           2.102   2.401  -3.687  0.00  0.00     0.028 H 
ATOM     20  H7  <0> d           3.347   3.466  -4.423  0.00  0.00     0.028 H 
ENDBRANCH  11  17
ENDBRANCH   1  11
TORSDOF 3
