REMARK  2 active torsions:
REMARK  status: ('A' for Active; 'I' for Inactive)
REMARK    1  A    between atoms: C1_1  and  C2_2 
REMARK    2  A    between atoms: N1_6  and  C6_7 
ROOT
ATOM      1  C2  <0> d           0.658   3.195   0.012  0.00  0.00     0.006 A 
ATOM      2  C3  <0> d           1.112   1.925   0.002  0.00  0.00    -0.060 A 
ATOM      3  C4  <0> d          -0.013   1.076   0.008  0.00  0.00    -0.066 A 
ATOM      4  C5  <0> d          -1.110   1.859   0.017  0.00  0.00    -0.021 A 
ATOM      5  N1  <0> d          -0.705   3.161   0.024  0.00  0.00    -0.365 N 
ATOM      6  H4  <0> d           2.146   1.616  -0.009  0.00  0.00     0.086 H 
ATOM      7  H5  <0> d           0.002  -0.004   0.002  0.00  0.00     0.085 H 
ATOM      8  H6  <0> d          -2.134   1.515   0.019  0.00  0.00     0.111 H 
ENDROOT
BRANCH   1   9
ATOM      9  C1  <0> d           1.511   4.438   0.010  0.00  0.00    -0.037 C 
ATOM     10  H1  <0> d           1.707   4.742  -1.018  0.00  0.00     0.035 H 
ATOM     11  H2  <0> d           0.987   5.238   0.532  0.00  0.00     0.035 H 
ATOM     12  H3  <0> d           2.455   4.231   0.514  0.00  0.00     0.035 H 
ENDBRANCH   1   9
BRANCH   5  13
ATOM     13  C6  <0> d          -1.588   4.330   0.038  0.00  0.00    -0.015 C 
ATOM     14  H7  <0> d          -1.816   4.625  -0.986  0.00  0.00     0.057 H 
ATOM     15  H8  <0> d          -2.512   4.081   0.559  0.00  0.00     0.057 H 
ATOM     16  H9  <0> d          -1.092   5.154   0.552  0.00  0.00     0.057 H 
ENDBRANCH   5  13
TORSDOF 2
