REMARK  2 active torsions:
REMARK  status: ('A' for Active; 'I' for Inactive)
REMARK    1  A    between atoms: C1_1  and  C2_2 
REMARK    2  A    between atoms: C1_1  and  C3_4 
ROOT
ATOM      1  C1  <0> d          -0.733   1.888   1.268  0.00  0.00     0.105 C 
ATOM      2  H1  <0> d          -0.748   2.978   1.274  0.00  0.00     0.062 H 
ATOM      3  H2  <0> d          -1.756   1.511   1.276  0.00  0.00     0.062 H 
ENDROOT
BRANCH   1   4
ATOM      4  C2  <0> d          -0.004   1.389   2.489  0.00  0.00     0.181 C 
ATOM      5  O1  <0> d           0.986   0.708   2.365  0.00  0.00    -0.648 OA
ATOM      6  O2  <0> d          -0.456   1.700   3.715  0.00  0.00    -0.648 OA
ENDBRANCH   1   4
BRANCH   1   7
ATOM      7  C3  <0> d          -0.017   1.395   0.010  0.00  0.00     0.397 C 
ATOM      8  F1  <0> d           0.002  -0.004   0.002  0.00  0.00    -0.171 F 
ATOM      9  F2  <0> d           1.296   1.879  -0.000  0.00  0.00    -0.171 F 
ATOM     10  F3  <0> d          -0.694   1.858  -1.124  0.00  0.00    -0.171 F 
ENDBRANCH   1   7
TORSDOF 2
