REMARK  4 active torsions:
REMARK  status: ('A' for Active; 'I' for Inactive)
REMARK    1  A    between atoms: C1_1  and  C2_2 
REMARK    2  A    between atoms: C2_2  and  C3_3 
REMARK    3  A    between atoms: C3_3  and  C4_5 
REMARK    4  A    between atoms: C3_3  and  O1_12 
ROOT
ATOM      1  C4  <0> d           0.870  -2.011   1.172  0.00  0.00     0.009 A 
ATOM      2  C5  <0> d          -0.057  -2.814   1.809  0.00  0.00    -0.071 A 
ATOM      3  C6  <0> d           0.057  -4.190   1.741  0.00  0.00    -0.082 A 
ATOM      4  C7  <0> d           1.104  -4.764   1.044  0.00  0.00    -0.080 A 
ATOM      5  C8  <0> d           2.035  -3.963   0.411  0.00  0.00    -0.045 A 
ATOM      6  C9  <0> d           1.919  -2.585   0.474  0.00  0.00     0.125 A 
ATOM      7  F1  <0> d           2.829  -1.800  -0.144  0.00  0.00    -0.205 F 
ATOM      8  H7  <0> d          -0.873  -2.367   2.357  0.00  0.00     0.084 H 
ATOM      9  H8  <0> d          -0.670  -4.817   2.235  0.00  0.00     0.083 H 
ATOM     10  H9  <0> d           1.195  -5.839   0.996  0.00  0.00     0.083 H 
ATOM     11  H10 <0> d           2.853  -4.412  -0.133  0.00  0.00     0.088 H 
ENDROOT
BRANCH   1  12
ATOM     12  C3  <0> d           0.742  -0.511   1.242  0.00  0.00     0.063 C 
ATOM     13  H1  <0> d           1.735  -0.063   1.280  0.00  0.00     0.090 H 
BRANCH  12  14
ATOM     14  C2  <0> d           0.002  -0.004   0.002  0.00  0.00    -0.040 C 
ATOM     15  H5  <0> d          -1.020  -0.381   0.010  0.00  0.00     0.036 H 
ATOM     16  H6  <0> d           0.512  -0.356  -0.895  0.00  0.00     0.036 H 
BRANCH  14  17
ATOM     17  C1  <0> d          -0.019   1.526   0.010  0.00  0.00    -0.074 C 
ATOM     18  H2  <0> d           1.004   1.903   0.003  0.00  0.00     0.027 H 
ATOM     19  H3  <0> d          -0.546   1.887  -0.873  0.00  0.00     0.027 H 
ATOM     20  H4  <0> d          -0.529   1.877   0.907  0.00  0.00     0.027 H 
ENDBRANCH  14  17
ENDBRANCH  12  14
BRANCH  12  21
ATOM     21  O1  <0> d           0.010  -0.149   2.414  0.00  0.00    -0.391 OA
ATOM     22  H11 <0> d          -0.885  -0.514   2.447  0.00  0.00     0.210 HD
ENDBRANCH  12  21
ENDBRANCH   1  12
TORSDOF 4
