REMARK  2 active torsions:
REMARK  status: ('A' for Active; 'I' for Inactive)
REMARK    1  A    between atoms: C1_1  and  C2_2 
REMARK    2  A    between atoms: C5_6  and  O1_9 
ROOT
ATOM      1  C2  <0> d           1.195  -0.371   0.908  0.00  0.00    -0.055 C 
ATOM      2  H1  <0> d           0.847  -0.572   1.921  0.00  0.00     0.039 H 
ATOM      3  C3  <0> d           0.002  -0.004   0.002  0.00  0.00    -0.060 C 
ATOM      4  C4  <0> d          -0.019   1.545   0.011  0.00  0.00    -0.041 C 
ATOM      5  C5  <0> d           1.487   1.907  -0.002  0.00  0.00     0.036 C 
ATOM      6  H2  <0> d           1.887   1.842  -1.014  0.00  0.00     0.082 H 
ATOM      7  C6  <0> d           2.139   0.844   0.906  0.00  0.00    -0.038 C 
ATOM      8  H6  <0> d          -0.926  -0.400   0.414  0.00  0.00     0.033 H 
ATOM      9  H7  <0> d           0.162  -0.378  -1.009  0.00  0.00     0.033 H 
ATOM     10  H8  <0> d          -0.516   1.929  -0.880  0.00  0.00     0.036 H 
ATOM     11  H9  <0> d          -0.499   1.919   0.914  0.00  0.00     0.036 H 
ATOM     12  H10 <0> d           2.249   1.234   1.918  0.00  0.00     0.037 H 
ATOM     13  H11 <0> d           3.113   0.559   0.507  0.00  0.00     0.037 H 
ENDROOT
BRANCH   1  14
ATOM     14  C1  <0> d           1.919  -1.598   0.350  0.00  0.00    -0.073 C 
ATOM     15  H3  <0> d           2.263  -1.388  -0.662  0.00  0.00     0.028 H 
ATOM     16  H4  <0> d           2.775  -1.834   0.983  0.00  0.00     0.028 H 
ATOM     17  H5  <0> d           1.235  -2.447   0.334  0.00  0.00     0.028 H 
ENDBRANCH   1  14
BRANCH   5  18
ATOM     18  O1  <0> d           1.691   3.216   0.534  0.00  0.00    -0.396 OA
ATOM     19  H12 <0> d           1.253   3.918   0.035  0.00  0.00     0.210 HD
ENDBRANCH   5  18
TORSDOF 2
