REMARK  3 active torsions:
REMARK  status: ('A' for Active; 'I' for Inactive)
REMARK    1  A    between atoms: C1_1  and  C2_2 
REMARK    2  A    between atoms: C4_5  and  O3_10 
REMARK    3  A    between atoms: O3_10  and  C7_11 
ROOT
ATOM      1  C2  <0> d          -0.013   1.086   0.008  0.00  0.00     0.050 C 
ATOM      2  H1  <0> d           0.002  -0.004   0.002  0.00  0.00     0.084 H 
ATOM      3  C3  <0> d          -0.710   1.584   1.279  0.00  0.00     0.004 C 
ATOM      4  C4  <0> d           0.137   1.227   2.475  0.00  0.00     0.054 C 
ATOM      5  C5  <0> d           1.469   1.101   2.340  0.00  0.00     0.018 C 
ATOM      6  C6  <0> d           2.084   1.294   1.080  0.00  0.00     0.285 C 
ATOM      7  O1  <0> d           3.292   1.199   0.972  0.00  0.00    -0.260 OA
ATOM      8  O2  <0> d           1.330   1.585  -0.002  0.00  0.00    -0.313 OA
ATOM      9  H5  <0> d          -0.832   2.666   1.228  0.00  0.00     0.046 H 
ATOM     10  H6  <0> d          -1.687   1.109   1.369  0.00  0.00     0.046 H 
ATOM     11  H7  <0> d           2.074   0.850   3.199  0.00  0.00     0.096 H 
ENDROOT
BRANCH   1  12
ATOM     12  C1  <0> d          -0.760   1.596  -1.226  0.00  0.00    -0.051 C 
ATOM     13  H2  <0> d          -0.255   1.246  -2.127  0.00  0.00     0.030 H 
ATOM     14  H3  <0> d          -1.783   1.220  -1.213  0.00  0.00     0.030 H 
ATOM     15  H4  <0> d          -0.773   2.686  -1.218  0.00  0.00     0.030 H 
ENDBRANCH   1  12
BRANCH   4  16
ATOM     16  O3  <0> d          -0.441   1.035   3.677  0.00  0.00    -0.360 OA
BRANCH  16  17
ATOM     17  C7  <0> d           0.436   0.694   4.783  0.00  0.00     0.010 C 
ATOM     18  H8  <0> d           0.960  -0.235   4.558  0.00  0.00     0.066 H 
ATOM     19  H9  <0> d           1.162   1.493   4.931  0.00  0.00     0.066 H 
ATOM     20  H10 <0> d          -0.155   0.567   5.690  0.00  0.00     0.066 H 
ENDBRANCH  16  17
ENDBRANCH   4  16
TORSDOF 3
