REMARK  2 active torsions:
REMARK  status: ('A' for Active; 'I' for Inactive)
REMARK    1  A    between atoms: C2_2  and  C3_3 
REMARK    2  A    between atoms: C6_6  and  N1_10 
ROOT
ATOM      1  C1  <0> d           0.018  -1.178  -0.004  0.00  0.00    -0.149 C 
ATOM      2  C2  <0> d           0.002  -0.004   0.002  0.00  0.00    -0.078 C 
ATOM      3  H1  <0> d           0.032  -2.228  -0.010  0.00  0.00     0.166 H 
ENDROOT
BRANCH   2   4
ATOM      4  C3  <0> d          -0.017   1.428   0.010  0.00  0.00     0.022 A 
ATOM      5  C8  <0> d           1.181   2.143   0.002  0.00  0.00    -0.025 A 
ATOM      6  C7  <0> d           1.160   3.523   0.005  0.00  0.00     0.147 A 
ATOM      7  H3  <0> d           2.125   1.617  -0.010  0.00  0.00     0.090 H 
ATOM      8  C6  <0> d          -0.055   4.201   0.026  0.00  0.00     0.104 A 
ATOM      9  F1  <0> d           2.319   4.216  -0.009  0.00  0.00    -0.204 F 
ATOM     10  C5  <0> d          -1.251   3.490   0.039  0.00  0.00     0.147 A 
ATOM     11  C4  <0> d          -1.235   2.110   0.031  0.00  0.00    -0.025 A 
ATOM     12  F2  <0> d          -2.429   4.152   0.059  0.00  0.00    -0.204 F 
ATOM     13  H2  <0> d          -2.163   1.559   0.041  0.00  0.00     0.090 H 
BRANCH   8  14
ATOM     14  N1  <0> d          -0.074   5.600   0.034  0.00  0.00    -0.394 N 
ATOM     15  H4  <0> d          -0.920   6.073   0.049  0.00  0.00     0.156 HD
ATOM     16  H5  <0> d           0.759   6.096   0.025  0.00  0.00     0.156 HD
ENDBRANCH   8  14
ENDBRANCH   2   4
TORSDOF 2
