REMARK  4 active torsions:
REMARK  status: ('A' for Active; 'I' for Inactive)
REMARK    1  A    between atoms: C2_2  and  C3_3 
REMARK    2  A    between atoms: C3_3  and  O1_4 
REMARK    3  A    between atoms: O1_4  and  C4_5 
REMARK    4  A    between atoms: C4_5  and  C5_6 
ROOT
ATOM      1  C1  <0> d           0.018  -1.178  -0.004  0.00  0.00    -0.152 C 
ATOM      2  C2  <0> d           0.002  -0.004   0.002  0.00  0.00    -0.091 C 
ATOM      3  H1  <0> d           0.032  -2.228  -0.010  0.00  0.00     0.166 H 
ENDROOT
BRANCH   2   4
ATOM      4  C3  <0> d          -0.018   1.468   0.010  0.00  0.00     0.074 C 
ATOM      5  H2  <0> d           1.005   1.845   0.002  0.00  0.00     0.093 H 
ATOM      6  H3  <0> d          -0.545   1.829  -0.873  0.00  0.00     0.093 H 
BRANCH   4   7
ATOM      7  O1  <0> d          -0.687   1.929   1.186  0.00  0.00    -0.368 OA
BRANCH   7   8
ATOM      8  C4  <0> d          -0.761   3.352   1.292  0.00  0.00     0.074 C 
ATOM      9  H4  <0> d           0.246   3.768   1.311  0.00  0.00     0.093 H 
ATOM     10  H5  <0> d          -1.304   3.752   0.435  0.00  0.00     0.093 H 
BRANCH   8  11
ATOM     11  C5  <0> d          -1.466   3.715   2.532  0.00  0.00    -0.091 C 
ATOM     12  C6  <0> d          -2.028   4.005   3.522  0.00  0.00    -0.152 C 
ATOM     13  H6  <0> d          -2.530   4.264   4.407  0.00  0.00     0.166 H 
ENDBRANCH   8  11
ENDBRANCH   7   8
ENDBRANCH   4   7
ENDBRANCH   2   4
TORSDOF 4
