REMARK  4 active torsions:
REMARK  status: ('A' for Active; 'I' for Inactive)
REMARK    1  A    between atoms: C1_1  and  C2_2 
REMARK    2  A    between atoms: C6_6  and  N1_8 
REMARK    3  A    between atoms: N1_8  and  C8_9 
REMARK    4  A    between atoms: N1_8  and  C9_10 
ROOT
ATOM      1  C2  <0> d          -4.167   1.750   0.014  0.00  0.00    -0.060 A 
ATOM      2  C3  <0> d          -4.813   2.196   1.153  0.00  0.00    -0.077 A 
ATOM      3  C4  <0> d          -4.095   2.430   2.312  0.00  0.00    -0.080 A 
ATOM      4  C5  <0> d          -2.731   2.215   2.337  0.00  0.00    -0.057 A 
ATOM      5  C6  <0> d          -2.079   1.772   1.193  0.00  0.00     0.029 A 
ATOM      6  C7  <0> d          -2.803   1.538   0.031  0.00  0.00    -0.052 A 
ATOM      7  H4  <0> d          -5.880   2.360   1.138  0.00  0.00     0.084 H 
ATOM      8  H5  <0> d          -4.603   2.777   3.200  0.00  0.00     0.083 H 
ATOM      9  H6  <0> d          -2.172   2.394   3.243  0.00  0.00     0.086 H 
ATOM     10  H7  <0> d          -2.299   1.190  -0.859  0.00  0.00     0.087 H 
ENDROOT
BRANCH   5  11
ATOM     11  N1  <0> d          -0.698   1.558   1.213  0.00  0.00    -0.390 N 
BRANCH  11  12
ATOM     12  C8  <0> d          -0.013   1.086   0.008  0.00  0.00    -0.019 C 
ATOM     13  H8  <0> d           0.002  -0.004   0.002  0.00  0.00     0.056 H 
ATOM     14  H9  <0> d           1.010   1.463   0.000  0.00  0.00     0.056 H 
ATOM     15  H10 <0> d          -0.540   1.447  -0.875  0.00  0.00     0.056 H 
ENDBRANCH  11  12
BRANCH  11  16
ATOM     16  C9  <0> d           0.063   1.806   2.440  0.00  0.00    -0.019 C 
ATOM     17  H11 <0> d           1.116   1.585   2.265  0.00  0.00     0.056 H 
ATOM     18  H12 <0> d          -0.045   2.851   2.730  0.00  0.00     0.056 H 
ATOM     19  H13 <0> d          -0.314   1.166   3.238  0.00  0.00     0.056 H 
ENDBRANCH  11  16
ENDBRANCH   5  11
BRANCH   1  20
ATOM     20  C1  <0> d          -4.953   1.496  -1.246  0.00  0.00    -0.051 C 
ATOM     21  H1  <0> d          -5.297   0.462  -1.257  0.00  0.00     0.033 H 
ATOM     22  H2  <0> d          -5.812   2.166  -1.280  0.00  0.00     0.033 H 
ATOM     23  H3  <0> d          -4.318   1.677  -2.113  0.00  0.00     0.033 H 
ENDBRANCH   1  20
TORSDOF 4
