REMARK  2 active torsions:
REMARK  status: ('A' for Active; 'I' for Inactive)
REMARK    1  A    between atoms: C2_2  and  N4_10 
REMARK    2  A    between atoms: C3_3  and  C4_7 
REMARK       I    between atoms: C4_7  and  N3_9 
ROOT
ATOM      1  C1  <0> d          -0.016   1.303   0.009  0.00  0.00     0.049 A 
ATOM      2  C2  <0> d           1.315   1.753  -0.001  0.00  0.00     0.079 A 
ATOM      3  C3  <0> d           2.090   0.597  -0.015  0.00  0.00     0.145 A 
ATOM      4  N1  <0> d           1.205  -0.453  -0.012  0.00  0.00    -0.271 N 
ATOM      5  H1  <0> d           1.451  -1.391  -0.020  0.00  0.00     0.189 HD
ATOM      6  N2  <0> d           0.002  -0.004   0.002  0.00  0.00    -0.184 NA
ATOM      7  H2  <0> d          -0.897   1.926   0.025  0.00  0.00     0.121 H 
ENDROOT
BRANCH   3   8
ATOM      8  C4  <0> d           3.553   0.517  -0.029  0.00  0.00     0.269 C 
ATOM      9  O1  <0> d           4.218   1.536  -0.030  0.00  0.00    -0.266 OA
ATOM     10  N3  <0> d           4.161  -0.685  -0.041  0.00  0.00    -0.365 N 
ATOM     11  H3  <0> d           3.631  -1.498  -0.041  0.00  0.00     0.159 HD
ATOM     12  H4  <0> d           5.130  -0.739  -0.051  0.00  0.00     0.159 HD
ENDBRANCH   3   8
BRANCH   2  13
ATOM     13  N4  <0> d           1.762   3.073   0.001  0.00  0.00    -0.396 N 
ATOM     14  H5  <0> d           1.122   3.802   0.011  0.00  0.00     0.156 HD
ATOM     15  H6  <0> d           2.713   3.263  -0.007  0.00  0.00     0.156 HD
ENDBRANCH   2  13
TORSDOF 2
