REMARK  2 active torsions:
REMARK  status: ('A' for Active; 'I' for Inactive)
REMARK    1  A    between atoms: C1_1  and  O1_2 
REMARK    2  A    between atoms: O1_2  and  C2_3 
ROOT
ATOM      1  C2  <0> d          -0.787   2.889   1.346  0.00  0.00     0.068 A 
ATOM      2  C3  <0> d          -0.251   3.747   0.392  0.00  0.00    -0.050 A 
ATOM      3  C4  <0> d          -0.358   5.099   0.545  0.00  0.00    -0.066 A 
ATOM      4  C5  <0> d          -1.002   5.630   1.674  0.00  0.00     0.017 A 
ATOM      5  C6  <0> d          -1.536   4.769   2.635  0.00  0.00    -0.034 A 
ATOM      6  C7  <0> d          -1.426   3.403   2.468  0.00  0.00    -0.043 A 
ATOM      7  C8  <0> d          -2.022   5.921   3.474  0.00  0.00     0.020 A 
ATOM      8  C9  <0> d          -1.436   6.816   2.420  0.00  0.00     0.164 A 
ATOM      9  O2  <0> d          -1.355   8.015   2.254  0.00  0.00    -0.292 OA
ATOM     10  H4  <0> d           0.249   3.342  -0.476  0.00  0.00     0.087 H 
ATOM     11  H5  <0> d           0.057   5.761  -0.201  0.00  0.00     0.085 H 
ATOM     12  H6  <0> d          -1.838   2.734   3.209  0.00  0.00     0.088 H 
ATOM     13  H7  <0> d          -3.009   5.841   3.611  0.00  0.00     0.052 H 
ATOM     14  H8  <0> d          -1.525   6.000   4.441  0.00  0.00     0.052 H 
ENDROOT
BRANCH   1  15
ATOM     15  O1  <0> d          -0.682   1.547   1.184  0.00  0.00    -0.356 OA
BRANCH  15  16
ATOM     16  C1  <0> d          -0.013   1.086   0.008  0.00  0.00     0.010 C 
ATOM     17  H1  <0> d           0.002  -0.004   0.002  0.00  0.00     0.066 H 
ATOM     18  H2  <0> d           1.010   1.463   0.000  0.00  0.00     0.066 H 
ATOM     19  H3  <0> d          -0.540   1.447  -0.875  0.00  0.00     0.066 H 
ENDBRANCH  15  16
ENDBRANCH   1  15
TORSDOF 2
