REMARK  4 active torsions:
REMARK  status: ('A' for Active; 'I' for Inactive)
REMARK    1  A    between atoms: C3_3  and  C7_9 
REMARK    2  A    between atoms: C5_6  and  C6_7 
REMARK    3  A    between atoms: C6_7  and  O1_8 
REMARK    4  A    between atoms: C7_9  and  O2_10 
ROOT
ATOM      1  C1  <0> d          -1.872   1.452   3.291  0.00  0.00    -0.071 A 
ATOM      2  C2  <0> d          -1.229   0.994   2.151  0.00  0.00    -0.056 A 
ATOM      3  C3  <0> d          -0.723   1.911   1.250  0.00  0.00     0.057 A 
ATOM      4  N1  <0> d          -0.855   3.206   1.459  0.00  0.00    -0.263 NA
ATOM      5  C4  <0> d          -1.464   3.677   2.529  0.00  0.00     0.011 A 
ATOM      6  C5  <0> d          -1.991   2.820   3.477  0.00  0.00    -0.017 A 
ATOM      7  H1  <0> d          -2.274   0.758   4.015  0.00  0.00     0.084 H 
ATOM      8  H2  <0> d          -1.121  -0.066   1.972  0.00  0.00     0.086 H 
ATOM      9  H3  <0> d          -1.553   4.745   2.667  0.00  0.00     0.115 H 
ENDROOT
BRANCH   3  10
ATOM     10  C7  <0> d          -0.017   1.425   0.010  0.00  0.00     0.056 C 
ATOM     11  H7  <0> d           1.005   1.802   0.002  0.00  0.00     0.083 H 
ATOM     12  H8  <0> d          -0.544   1.786  -0.873  0.00  0.00     0.083 H 
BRANCH  10  13
ATOM     13  O2  <0> d           0.002  -0.004   0.002  0.00  0.00    -0.395 OA
ATOM     14  H9  <0> d           0.442  -0.387  -0.769  0.00  0.00     0.209 HD
ENDBRANCH  10  13
ENDBRANCH   3  10
BRANCH   6  15
ATOM     15  C6  <0> d          -2.686   3.367   4.698  0.00  0.00     0.042 C 
ATOM     16  H4  <0> d          -2.559   2.674   5.529  0.00  0.00     0.081 H 
ATOM     17  H5  <0> d          -2.254   4.332   4.960  0.00  0.00     0.081 H 
BRANCH  15  18
ATOM     18  O1  <0> d          -4.079   3.528   4.421  0.00  0.00    -0.396 OA
ATOM     19  H6  <0> d          -4.590   3.877   5.164  0.00  0.00     0.209 HD
ENDBRANCH  15  18
ENDBRANCH   6  15
TORSDOF 4
