REMARK  3 active torsions:
REMARK  status: ('A' for Active; 'I' for Inactive)
REMARK    1  A    between atoms: C1_1  and  C2_2 
REMARK    2  A    between atoms: C5_5  and  N1_9 
REMARK    3  A    between atoms: N1_9  and  C8_10 
ROOT
ATOM      1  C2  <0> d           1.176   1.783   0.000  0.00  0.00    -0.040 A 
ATOM      2  C3  <0> d          -0.013   1.076   0.008  0.00  0.00    -0.073 A 
ATOM      3  C4  <0> d          -1.218   1.749   0.017  0.00  0.00    -0.057 A 
ATOM      4  C5  <0> d          -1.237   3.138   0.030  0.00  0.00     0.029 A 
ATOM      5  C6  <0> d          -0.042   3.846   0.022  0.00  0.00    -0.036 A 
ATOM      6  C7  <0> d           1.162   3.166   0.007  0.00  0.00     0.042 A 
ATOM      7 Cl1  <0> d           2.656   4.049  -0.003  0.00  0.00    -0.084 Cl
ATOM      8  H4  <0> d           0.002  -0.004   0.002  0.00  0.00     0.084 H 
ATOM      9  H5  <0> d          -2.146   1.196   0.019  0.00  0.00     0.086 H 
ATOM     10  H6  <0> d          -0.053   4.926   0.027  0.00  0.00     0.089 H 
ENDROOT
BRANCH   4  11
ATOM     11  N1  <0> d          -2.455   3.822   0.045  0.00  0.00    -0.394 N 
ATOM     12  H7  <0> d          -2.468   4.921   0.051  0.00  0.00     0.159 HD
BRANCH  11  13
ATOM     13  C8  <0> d          -3.715   3.074   0.054  0.00  0.00    -0.021 C 
ATOM     14  H8  <0> d          -4.559   3.778   0.065  0.00  0.00     0.056 H 
ATOM     15  H9  <0> d          -3.756   2.436   0.949  0.00  0.00     0.056 H 
ATOM     16  H10 <0> d          -3.774   2.445  -0.847  0.00  0.00     0.056 H 
ENDBRANCH  11  13
ENDBRANCH   4  11
BRANCH   1  17
ATOM     17  C1  <0> d           2.490   1.044  -0.016  0.00  0.00    -0.050 C 
ATOM     18  H1  <0> d           2.301  -0.039  -0.019  0.00  0.00     0.033 H 
ATOM     19  H2  <0> d           3.072   1.312   0.878  0.00  0.00     0.033 H 
ATOM     20  H3  <0> d           3.055   1.321  -0.918  0.00  0.00     0.033 H 
ENDBRANCH   1  17
TORSDOF 3
