REMARK  4 active torsions:
REMARK  status: ('A' for Active; 'I' for Inactive)
REMARK    1  A    between atoms: C1_1  and  N1_2 
REMARK    2  A    between atoms: N1_2  and  C2_3 
REMARK    3  A    between atoms: C3_4  and  N5_12 
REMARK    4  A    between atoms: C5_9  and  N4_11 
ROOT
ATOM      1  C2  <0> d           0.619  -0.692   1.028  0.00  0.00     0.182 A 
ATOM      2  C3  <0> d           0.644  -2.079   1.020  0.00  0.00     0.243 A 
ATOM      3  C4  <0> d           1.278  -2.745   2.074  0.00  0.00     0.297 A 
ATOM      4  O1  <0> d           1.320  -3.965   2.100  0.00  0.00    -0.265 OA
ATOM      5  N2  <0> d           1.841  -2.017   3.060  0.00  0.00    -0.153 N 
ATOM      6  H1  <0> d           2.285  -2.464   3.798  0.00  0.00     0.187 HD
ATOM      7  C5  <0> d           1.789  -0.658   3.022  0.00  0.00     0.703 A 
ATOM      8  N3  <0> d           1.200  -0.023   2.031  0.00  0.00    -0.045 NA
ENDROOT
BRANCH   1   9
ATOM      9  N1  <0> d           0.002  -0.004   0.002  0.00  0.00    -0.377 N 
ATOM     10  H5  <0> d          -0.418  -0.491  -0.724  0.00  0.00     0.160 HD
BRANCH   9  11
ATOM     11  C1  <0> d          -0.018   1.461   0.010  0.00  0.00    -0.019 C 
ATOM     12  H2  <0> d           1.005   1.838   0.002  0.00  0.00     0.056 H 
ATOM     13  H3  <0> d          -0.545   1.822  -0.873  0.00  0.00     0.056 H 
ATOM     14  H4  <0> d          -0.528   1.812   0.907  0.00  0.00     0.056 H 
ENDBRANCH   9  11
ENDBRANCH   1   9
BRANCH   2  15
ATOM     15  N5  <0> d           0.048  -2.797  -0.021  0.00  0.00    -0.040 N 
ATOM     16  H8  <0> d           0.724  -2.951  -0.753  0.00  0.00     0.281 HD
ATOM     17  H9  <0> d          -0.280  -3.685   0.328  0.00  0.00     0.281 HD
ATOM     18  H10 <0> d          -0.731  -2.271  -0.388  0.00  0.00     0.281 HD
ENDBRANCH   2  15
BRANCH   7  19
ATOM     19  N4  <0> d           2.367   0.064   4.032  0.00  0.00    -0.233 N 
ATOM     20  H6  <0> d           2.807  -0.394   4.765  0.00  0.00     0.174 HD
ATOM     21  H7  <0> d           2.335   1.034   4.014  0.00  0.00     0.174 HD
ENDBRANCH   7  19
TORSDOF 4
