REMARK  2 active torsions:
REMARK  status: ('A' for Active; 'I' for Inactive)
REMARK    1  A    between atoms: C1_1  and  O1_2 
REMARK    2  A    between atoms: O1_2  and  C2_3 
ROOT
ATOM      1  C2  <0> d           1.420   2.050  -0.001  0.00  0.00     0.130 C 
ATOM      2  H1  <0> d           1.933   1.721   0.903  0.00  0.00     0.128 H 
ATOM      3  C3  <0> d          -0.019   1.528   0.010  0.00  0.00    -0.019 C 
ATOM      4  C4  <0> d           0.002  -0.004   0.002  0.00  0.00    -0.059 C 
ATOM      5  C5  <0> d           0.786  -0.486  -1.222  0.00  0.00    -0.045 C 
ATOM      6  C6  <0> d           2.194   0.114  -1.186  0.00  0.00     0.023 C 
ATOM      7  O2  <0> d           2.102   1.539  -1.148  0.00  0.00    -0.361 OA
ATOM      8  H5  <0> d          -0.544   1.890  -0.873  0.00  0.00     0.040 H 
ATOM      9  H6  <0> d          -0.527   1.880   0.908  0.00  0.00     0.040 H 
ATOM     10  H7  <0> d           0.484  -0.367   0.910  0.00  0.00     0.033 H 
ATOM     11  H8  <0> d          -1.019  -0.382  -0.047  0.00  0.00     0.033 H 
ATOM     12  H9  <0> d           0.853  -1.574  -1.206  0.00  0.00     0.036 H 
ATOM     13  H10 <0> d           0.277  -0.165  -2.131  0.00  0.00     0.036 H 
ATOM     14  H11 <0> d           2.717  -0.241  -0.297  0.00  0.00     0.074 H 
ATOM     15  H12 <0> d           2.743  -0.192  -2.076  0.00  0.00     0.074 H 
ENDROOT
BRANCH   1  16
ATOM     16  O1  <0> d           1.409   3.478  -0.049  0.00  0.00    -0.366 OA
BRANCH  16  17
ATOM     17  C1  <0> d           2.704   4.073   0.050  0.00  0.00     0.007 C 
ATOM     18  H2  <0> d           3.163   3.788   0.997  0.00  0.00     0.066 H 
ATOM     19  H3  <0> d           3.327   3.728  -0.775  0.00  0.00     0.066 H 
ATOM     20  H4  <0> d           2.609   5.158   0.005  0.00  0.00     0.066 H 
ENDBRANCH  16  17
ENDBRANCH   1  16
TORSDOF 2
