REMARK  1 active torsions:
REMARK  status: ('A' for Active; 'I' for Inactive)
REMARK    1  A    between atoms: C5_6  and  N2_7 
ROOT
ATOM      1  C1  <0> d          -1.223   2.033   0.019  0.00  0.00    -0.016 A 
ATOM      2  C2  <0> d          -0.016   1.347   0.009  0.00  0.00     0.136 A 
ATOM      3  C3  <0> d           1.168   2.063   0.002  0.00  0.00     0.041 A 
ATOM      4  N1  <0> d           1.162   3.382   0.010  0.00  0.00    -0.243 NA
ATOM      5  C4  <0> d           0.038   4.072   0.024  0.00  0.00     0.151 A 
ATOM      6  C5  <0> d          -1.192   3.424   0.032  0.00  0.00     0.069 A 
ATOM      7 Cl1  <0> d           0.095   5.807   0.034  0.00  0.00    -0.060 Cl
ATOM      8  F1  <0> d           0.002  -0.004   0.002  0.00  0.00    -0.205 F 
ATOM      9  H1  <0> d          -2.162   1.500   0.020  0.00  0.00     0.091 H 
ATOM     10  H2  <0> d           2.110   1.535  -0.010  0.00  0.00     0.119 H 
ENDROOT
BRANCH   6  11
ATOM     11  N2  <0> d          -2.381   4.159   0.047  0.00  0.00    -0.396 N 
ATOM     12  H3  <0> d          -2.351   5.128   0.052  0.00  0.00     0.156 HD
ATOM     13  H4  <0> d          -3.235   3.700   0.052  0.00  0.00     0.156 HD
ENDBRANCH   6  11
TORSDOF 1
