REMARK  3 active torsions:
REMARK  status: ('A' for Active; 'I' for Inactive)
REMARK    1  A    between atoms: C1_1  and  C2_2 
REMARK    2  A    between atoms: C4_4  and  C7_9 
REMARK    3  A    between atoms: C5_6  and  C6_7 
ROOT
ATOM      1  C2  <0> d           2.096   0.662  -0.014  0.00  0.00    -0.019 A 
ATOM      2  C3  <0> d           1.258   1.788  -0.000  0.00  0.00    -0.046 A 
ATOM      3  C4  <0> d          -0.016   1.335   0.009  0.00  0.00     0.050 A 
ATOM      4  O1  <0> d           0.002  -0.004   0.002  0.00  0.00    -0.308 OA
ATOM      5  C5  <0> d           1.281  -0.434  -0.013  0.00  0.00     0.157 A 
ATOM      6  H4  <0> d           1.571   2.821   0.002  0.00  0.00     0.088 H 
ENDROOT
BRANCH   1   7
ATOM      7  C1  <0> d           3.603   0.663  -0.029  0.00  0.00    -0.048 C 
ATOM      8  H1  <0> d           3.956   0.669  -1.060  0.00  0.00     0.033 H 
ATOM      9  H2  <0> d           3.970   1.551   0.486  0.00  0.00     0.033 H 
ATOM     10  H3  <0> d           3.971  -0.229   0.477  0.00  0.00     0.033 H 
ENDBRANCH   1   7
BRANCH   5  11
ATOM     11  C6  <0> d           1.719  -1.832  -0.025  0.00  0.00     0.234 C 
ATOM     12  O2  <0> d           2.905  -2.098  -0.038  0.00  0.00    -0.642 OA
ATOM     13  O3  <0> d           0.805  -2.825  -0.021  0.00  0.00    -0.642 OA
ENDBRANCH   5  11
BRANCH   3  14
ATOM     14  C7  <0> d          -1.253   2.196   0.020  0.00  0.00    -0.031 C 
ATOM     15  H5  <0> d          -2.138   1.560   0.021  0.00  0.00     0.036 H 
ATOM     16  H6  <0> d          -1.253   2.820   0.913  0.00  0.00     0.036 H 
ATOM     17  H7  <0> d          -1.262   2.829  -0.867  0.00  0.00     0.036 H 
ENDBRANCH   3  14
TORSDOF 3
