REMARK  4 active torsions:
REMARK  status: ('A' for Active; 'I' for Inactive)
REMARK    1  A    between atoms: C1_1  and  O1_2 
REMARK    2  A    between atoms: O1_2  and  C2_3 
REMARK    3  A    between atoms: C5_7  and  O3_10 
REMARK    4  A    between atoms: O3_10  and  C6_11 
ROOT
ATOM      1  C2  <0> d          -0.013   1.086   0.008  0.00  0.00     0.133 C 
ATOM      2  H1  <0> d           0.002  -0.004   0.002  0.00  0.00     0.129 H 
ATOM      3  C3  <0> d          -0.717   1.607  -1.263  0.00  0.00    -0.015 C 
ATOM      4  C4  <0> d           0.483   1.943  -2.190  0.00  0.00    -0.015 C 
ATOM      5  C5  <0> d           1.530   2.424  -1.154  0.00  0.00     0.133 C 
ATOM      6  H2  <0> d           1.357   3.470  -0.899  0.00  0.00     0.129 H 
ATOM      7  O2  <0> d           1.328   1.590  -0.002  0.00  0.00    -0.332 OA
ATOM      8  H6  <0> d          -1.343   0.832  -1.705  0.00  0.00     0.040 H 
ATOM      9  H7  <0> d          -1.300   2.501  -1.044  0.00  0.00     0.040 H 
ATOM     10  H8  <0> d           0.228   2.739  -2.890  0.00  0.00     0.040 H 
ATOM     11  H9  <0> d           0.833   1.056  -2.719  0.00  0.00     0.040 H 
ENDROOT
BRANCH   1  12
ATOM     12  O1  <0> d          -0.698   1.555   1.171  0.00  0.00    -0.366 OA
BRANCH  12  13
ATOM     13  C1  <0> d          -0.183   1.035   2.398  0.00  0.00     0.007 C 
ATOM     14  H3  <0> d          -0.262  -0.052   2.395  0.00  0.00     0.066 H 
ATOM     15  H4  <0> d           0.863   1.323   2.504  0.00  0.00     0.066 H 
ATOM     16  H5  <0> d          -0.757   1.439   3.233  0.00  0.00     0.066 H 
ENDBRANCH  12  13
ENDBRANCH   1  12
BRANCH   5  17
ATOM     17  O3  <0> d           2.853   2.251  -1.666  0.00  0.00    -0.366 OA
BRANCH  17  18
ATOM     18  C6  <0> d           3.881   2.718  -0.789  0.00  0.00     0.007 C 
ATOM     19  H10 <0> d           3.744   3.784  -0.604  0.00  0.00     0.066 H 
ATOM     20  H11 <0> d           3.827   2.176   0.154  0.00  0.00     0.066 H 
ATOM     21  H12 <0> d           4.854   2.552  -1.250  0.00  0.00     0.066 H 
ENDBRANCH  17  18
ENDBRANCH   5  17
TORSDOF 4
