REMARK  4 active torsions:
REMARK  status: ('A' for Active; 'I' for Inactive)
REMARK    1  A    between atoms: C1_1  and  O1_2 
REMARK    2  A    between atoms: O1_2  and  C2_3 
REMARK    3  A    between atoms: C2_3  and  C3_5 
REMARK    4  A    between atoms: C3_5  and  C4_6 
ROOT
ATOM      1  C4  <0> d          -0.018   1.468   0.010  0.00  0.00     0.023 C 
ATOM      2  C5  <0> d           0.002  -0.004   0.002  0.00  0.00     0.059 C 
ATOM      3  N1  <0> d           0.018  -1.140  -0.004  0.00  0.00    -0.197 NA
ATOM      4  H6  <0> d           1.005   1.845   0.002  0.00  0.00     0.055 H 
ATOM      5  H7  <0> d          -0.545   1.829  -0.873  0.00  0.00     0.055 H 
ENDROOT
BRANCH   1   6
ATOM      6  C3  <0> d          -0.734   1.961   1.269  0.00  0.00     0.027 C 
ATOM      7  H4  <0> d          -1.757   1.584   1.277  0.00  0.00     0.049 H 
ATOM      8  H5  <0> d          -0.207   1.600   2.152  0.00  0.00     0.049 H 
BRANCH   6   9
ATOM      9  C2  <0> d          -0.754   3.468   1.277  0.00  0.00     0.259 C 
ATOM     10  O2  <0> d          -0.248   4.084   0.369  0.00  0.00    -0.265 OA
BRANCH   9  11
ATOM     11  O1  <0> d          -1.335   4.126   2.293  0.00  0.00    -0.326 OA
BRANCH  11  12
ATOM     12  C1  <0> d          -1.317   5.577   2.235  0.00  0.00     0.013 C 
ATOM     13  H1  <0> d          -1.818   5.981   3.114  0.00  0.00     0.067 H 
ATOM     14  H2  <0> d          -0.285   5.927   2.211  0.00  0.00     0.067 H 
ATOM     15  H3  <0> d          -1.835   5.910   1.336  0.00  0.00     0.067 H 
ENDBRANCH  11  12
ENDBRANCH   9  11
ENDBRANCH   6   9
ENDBRANCH   1   6
TORSDOF 4
