REMARK  4 active torsions:
REMARK  status: ('A' for Active; 'I' for Inactive)
REMARK    1  A    between atoms: C5_5  and  C8_9 
REMARK    2  A    between atoms: C6_6  and  C7_7 
REMARK    3  A    between atoms: C7_7  and  O1_8 
REMARK    4  A    between atoms: C8_9  and  O2_10 
ROOT
ATOM      1  C1  <0> d          -0.051   0.986  -0.030  0.00  0.00    -0.027 C 
ATOM      2  C2  <0> d          -0.665   1.508   1.234  0.00  0.00    -0.102 C 
ATOM      3  C3  <0> d          -1.863   2.005   1.282  0.00  0.00    -0.102 C 
ATOM      4  C4  <0> d          -2.750   2.105   0.078  0.00  0.00    -0.027 C 
ATOM      5  C5  <0> d          -1.954   2.024  -1.190  0.00  0.00    -0.049 C 
ATOM      6  C6  <0> d          -0.755   1.527  -1.238  0.00  0.00    -0.049 C 
ATOM      7  H1  <0> d          -0.115  -0.102  -0.036  0.00  0.00     0.045 H 
ATOM      8  H2  <0> d           0.998   1.282  -0.066  0.00  0.00     0.045 H 
ATOM      9  H3  <0> d          -0.086   1.468   2.144  0.00  0.00     0.076 H 
ATOM     10  H4  <0> d          -2.237   2.361   2.231  0.00  0.00     0.076 H 
ATOM     11  H5  <0> d          -3.283   3.056   0.105  0.00  0.00     0.045 H 
ATOM     12  H6  <0> d          -3.473   1.290   0.099  0.00  0.00     0.045 H 
ENDROOT
BRANCH   5  13
ATOM     13  C8  <0> d          -2.572   2.541  -2.463  0.00  0.00     0.038 C 
ATOM     14  H10 <0> d          -2.690   3.622  -2.397  0.00  0.00     0.081 H 
ATOM     15  H11 <0> d          -1.925   2.296  -3.306  0.00  0.00     0.081 H 
BRANCH  13  16
ATOM     16  O2  <0> d          -3.851   1.933  -2.653  0.00  0.00    -0.397 OA
ATOM     17  H12 <0> d          -4.340   2.275  -3.413  0.00  0.00     0.209 HD
ENDBRANCH  13  16
ENDBRANCH   5  13
BRANCH   6  18
ATOM     18  C7  <0> d          -0.042   1.492  -2.565  0.00  0.00     0.038 C 
ATOM     19  H7  <0> d          -0.470   2.245  -3.227  0.00  0.00     0.081 H 
ATOM     20  H8  <0> d           1.017   1.700  -2.414  0.00  0.00     0.081 H 
BRANCH  18  21
ATOM     21  O1  <0> d          -0.195   0.199  -3.153  0.00  0.00    -0.397 OA
ATOM     22  H9  <0> d           0.303   0.079  -3.974  0.00  0.00     0.209 HD
ENDBRANCH  18  21
ENDBRANCH   6  18
TORSDOF 4
