REMARK  1 active torsions:
REMARK  status: ('A' for Active; 'I' for Inactive)
REMARK    1  A    between atoms: C2_2  and  C4_6 
ROOT
ATOM      1  C4  <0> d           1.735   3.187   0.003  0.00  0.00     0.056 C 
ATOM      2  C5  <0> d           2.655   3.397   1.132  0.00  0.00     0.065 C 
ATOM      3  N2  <0> d           3.366   3.559   2.003  0.00  0.00    -0.197 NA
ATOM      4  H3  <0> d           2.252   3.401  -0.933  0.00  0.00     0.064 H 
ATOM      5  H4  <0> d           0.877   3.853   0.104  0.00  0.00     0.064 H 
ENDROOT
BRANCH   1   6
ATOM      6  C2  <0> d           1.262   1.756  -0.001  0.00  0.00     0.071 A 
ATOM      7  C1  <0> d          -0.016   1.343   0.009  0.00  0.00     0.045 A 
ATOM      8  O1  <0> d           0.002  -0.004   0.002  0.00  0.00    -0.314 OA
ATOM      9  H1  <0> d          -0.893   1.973   0.025  0.00  0.00     0.126 H 
ATOM     10  C3  <0> d           1.283  -0.395  -0.012  0.00  0.00     0.102 A 
ATOM     11  N1  <0> d           2.044   0.662  -0.014  0.00  0.00    -0.238 NA
ATOM     12  H2  <0> d           1.629  -1.419  -0.021  0.00  0.00     0.155 H 
ENDBRANCH   1   6
TORSDOF 1
