REMARK  2 active torsions:
REMARK  status: ('A' for Active; 'I' for Inactive)
REMARK    1  A    between atoms: C5_5  and  C7_7 
REMARK    2  A    between atoms: C7_7  and  O1_8 
ROOT
ATOM      1  C1  <0> d          -0.247   5.011   0.029  0.00  0.00    -0.082 A 
ATOM      2  C2  <0> d           0.879   5.816   0.024  0.00  0.00    -0.074 A 
ATOM      3  C3  <0> d           2.132   5.245   0.013  0.00  0.00    -0.022 A 
ATOM      4  C4  <0> d           2.285   3.865   0.001  0.00  0.00     0.083 A 
ATOM      5  C5  <0> d           1.147   3.062   0.008  0.00  0.00    -0.001 A 
ATOM      6  C6  <0> d          -0.108   3.636   0.017  0.00  0.00    -0.072 A 
ATOM      7  O2  <0> d           3.600   3.514  -0.024  0.00  0.00    -0.350 OA
ATOM      8  C8  <0> d           4.397   4.630   0.409  0.00  0.00     0.030 C 
ATOM      9  C9  <0> d           3.525   5.846   0.016  0.00  0.00    -0.018 C 
ATOM     10  H1  <0> d          -1.231   5.456   0.039  0.00  0.00     0.083 H 
ATOM     11  H2  <0> d           0.775   6.891   0.029  0.00  0.00     0.084 H 
ATOM     12  H3  <0> d          -0.986   3.007   0.019  0.00  0.00     0.084 H 
ATOM     13  H7  <0> d           4.552   4.598   1.487  0.00  0.00     0.075 H 
ATOM     14  H8  <0> d           5.350   4.652  -0.119  0.00  0.00     0.075 H 
ATOM     15  H9  <0> d           3.605   6.639   0.759  0.00  0.00     0.043 H 
ATOM     16  H10 <0> d           3.793   6.214  -0.974  0.00  0.00     0.043 H 
ENDROOT
BRANCH   5  17
ATOM     17  C7  <0> d           1.286   1.562  -0.002  0.00  0.00     0.043 C 
ATOM     18  H4  <0> d           1.840   1.243   0.881  0.00  0.00     0.081 H 
ATOM     19  H5  <0> d           1.823   1.252  -0.899  0.00  0.00     0.081 H 
BRANCH  17  20
ATOM     20  O1  <0> d          -0.011   0.963   0.007  0.00  0.00    -0.396 OA
ATOM     21  H6  <0> d           0.002  -0.004   0.002  0.00  0.00     0.209 HD
ENDBRANCH  17  20
ENDBRANCH   5  17
TORSDOF 2
