REMARK  4 active torsions:
REMARK  status: ('A' for Active; 'I' for Inactive)
REMARK    1  A    between atoms: N2_4  and  C4_6 
REMARK    2  A    between atoms: C4_6  and  C5_7 
REMARK    3  A    between atoms: C5_7  and  C6_8 
REMARK    4  A    between atoms: C6_8  and  C7_9 
ROOT
ATOM      1  C4  <0> d          -0.019   1.526   0.010  0.00  0.00     0.017 C 
ATOM      2  H4  <0> d          -0.551   1.890  -0.881  0.00  0.00     0.067 H 
ATOM      3  H5  <0> d           1.013   1.907   0.003  0.00  0.00     0.067 H 
ENDROOT
BRANCH   1   4
ATOM      4  N2  <0> d          -0.704   1.998   1.216  0.00  0.00    -0.281 N 
ATOM      5  N1  <0> d          -1.998   1.645   1.619  0.00  0.00    -0.185 NA
ATOM      6  C2  <0> d          -2.259   2.263   2.743  0.00  0.00     0.023 A 
ATOM      7  C1  <0> d          -1.144   3.036   3.085  0.00  0.00    -0.048 A 
ATOM      8  H2  <0> d          -3.178   2.193   3.306  0.00  0.00     0.117 H 
ATOM      9  C3  <0> d          -0.203   2.855   2.130  0.00  0.00    -0.000 A 
ATOM     10  H1  <0> d          -1.051   3.666   3.958  0.00  0.00     0.087 H 
ATOM     11  H3  <0> d           0.774   3.313   2.104  0.00  0.00     0.114 H 
ENDBRANCH   1   4
BRANCH   1  12
ATOM     12  C5  <0> d           0.002  -0.004   0.002  0.00  0.00    -0.039 C 
ATOM     13  H6  <0> d           0.534  -0.368   0.893  0.00  0.00     0.036 H 
ATOM     14  H7  <0> d          -1.030  -0.385   0.010  0.00  0.00     0.036 H 
BRANCH  12  15
ATOM     15  C6  <0> d           0.718  -0.497  -1.257  0.00  0.00     0.017 C 
ATOM     16  H8  <0> d           0.186  -0.133  -2.148  0.00  0.00     0.049 H 
ATOM     17  H9  <0> d           1.750  -0.117  -1.265  0.00  0.00     0.049 H 
BRANCH  15  18
ATOM     18  C7  <0> d           0.739  -2.004  -1.265  0.00  0.00     0.172 C 
ATOM     19  O1  <0> d           0.232  -2.620  -0.357  0.00  0.00    -0.648 OA
ATOM     20  O2  <0> d           1.319  -2.662  -2.281  0.00  0.00    -0.648 OA
ENDBRANCH  15  18
ENDBRANCH  12  15
ENDBRANCH   1  12
TORSDOF 4
