REMARK  3 active torsions:
REMARK  status: ('A' for Active; 'I' for Inactive)
REMARK    1  A    between atoms: C1_1  and  C2_2 
REMARK    2  A    between atoms: C4_5  and  C7_9 
REMARK    3  A    between atoms: C4_5  and  C8_10 
ROOT
ATOM      1  C2  <0> d          -0.729   1.579   1.267  0.00  0.00     0.001 C 
ATOM      2  H1  <0> d          -0.761   2.579   1.262  0.00  0.00     0.051 H 
ATOM      3  C3  <0> d           0.006   1.076   2.522  0.00  0.00    -0.049 C 
ATOM      4  C4  <0> d          -1.007   0.197   3.286  0.00  0.00    -0.041 C 
ATOM      5  C5  <0> d          -2.013  -0.240   2.192  0.00  0.00    -0.003 C 
ATOM      6  C6  <0> d          -2.135   1.007   1.323  0.00  0.00     0.131 C 
ATOM      7  O1  <0> d          -3.129   1.444   0.795  0.00  0.00    -0.298 OA
ATOM      8  H5  <0> d           0.876   0.484   2.236  0.00  0.00     0.035 H 
ATOM      9  H6  <0> d           0.313   1.919   3.141  0.00  0.00     0.035 H 
ATOM     10  H7  <0> d          -1.649  -1.031   1.700  0.00  0.00     0.045 H 
ATOM     11  H8  <0> d          -2.975  -0.498   2.633  0.00  0.00     0.045 H 
ENDROOT
BRANCH   4  12
ATOM     12  C7  <0> d          -0.310  -1.023   3.893  0.00  0.00    -0.069 C 
ATOM     13  H9  <0> d           0.463  -0.692   4.586  0.00  0.00     0.028 H 
ATOM     14  H10 <0> d          -1.041  -1.630   4.427  0.00  0.00     0.028 H 
ATOM     15  H11 <0> d           0.143  -1.615   3.099  0.00  0.00     0.028 H 
ENDBRANCH   4  12
BRANCH   4  16
ATOM     16  C8  <0> d          -1.711   1.009   4.375  0.00  0.00    -0.069 C 
ATOM     17  H12 <0> d          -2.242   1.845   3.918  0.00  0.00     0.028 H 
ATOM     18  H13 <0> d          -2.421   0.372   4.902  0.00  0.00     0.028 H 
ATOM     19  H14 <0> d          -0.972   1.390   5.079  0.00  0.00     0.028 H 
ENDBRANCH   4  16
BRANCH   1  20
ATOM     20  C1  <0> d          -0.013   1.086   0.008  0.00  0.00    -0.066 C 
ATOM     21  H2  <0> d           0.002  -0.004   0.002  0.00  0.00     0.028 H 
ATOM     22  H3  <0> d           1.010   1.463   0.000  0.00  0.00     0.028 H 
ATOM     23  H4  <0> d          -0.540   1.447  -0.875  0.00  0.00     0.028 H 
ENDBRANCH   1  20
TORSDOF 3
