REMARK  7 active torsions:
REMARK  status: ('A' for Active; 'I' for Inactive)
REMARK    1  A    between atoms: C1_1  and  C2_2 
REMARK    2  A    between atoms: C2_2  and  C3_4 
REMARK    3  A    between atoms: C2_2  and  O2_10 
REMARK    4  A    between atoms: C3_4  and  C4_5 
REMARK    5  A    between atoms: C4_5  and  C5_6 
REMARK    6  A    between atoms: C5_6  and  C6_8 
REMARK    7  A    between atoms: C5_6  and  O1_9 
ROOT
ATOM      1  C3  <0> d          -0.019   1.526   0.010  0.00  0.00    -0.039 C 
ATOM      2  H6  <0> d          -0.546   1.887  -0.873  0.00  0.00     0.036 H 
ATOM      3  H7  <0> d          -0.529   1.877   0.907  0.00  0.00     0.036 H 
ENDROOT
BRANCH   1   4
ATOM      4  C2  <0> d           1.417   2.055  -0.000  0.00  0.00     0.032 C 
ATOM      5  H1  <0> d           1.954   1.633  -0.850  0.00  0.00     0.082 H 
BRANCH   4   6
ATOM      6  C1  <0> d           1.397   3.581  -0.118  0.00  0.00    -0.052 C 
ATOM      7  H3  <0> d           0.860   4.003   0.732  0.00  0.00     0.030 H 
ATOM      8  H4  <0> d           2.419   3.958  -0.126  0.00  0.00     0.030 H 
ATOM      9  H5  <0> d           0.897   3.867  -1.043  0.00  0.00     0.030 H 
ENDBRANCH   4   6
BRANCH   4  10
ATOM     10  O2  <0> d           2.072   1.679   1.212  0.00  0.00    -0.396 OA
ATOM     11  H14 <0> d           1.648   2.022   2.011  0.00  0.00     0.210 HD
ENDBRANCH   4  10
ENDBRANCH   1   4
BRANCH   1  12
ATOM     12  C4  <0> d           0.002  -0.004   0.002  0.00  0.00    -0.039 C 
ATOM     13  H8  <0> d           0.512  -0.356  -0.895  0.00  0.00     0.036 H 
ATOM     14  H9  <0> d           0.529  -0.365   0.885  0.00  0.00     0.036 H 
BRANCH  12  15
ATOM     15  C5  <0> d          -1.433  -0.534   0.013  0.00  0.00     0.032 C 
ATOM     16  H2  <0> d          -1.986  -0.102  -0.821  0.00  0.00     0.082 H 
BRANCH  15  17
ATOM     17  C6  <0> d          -1.416  -2.058  -0.121  0.00  0.00    -0.052 C 
ATOM     18  H10 <0> d          -0.863  -2.489   0.713  0.00  0.00     0.030 H 
ATOM     19  H11 <0> d          -2.438  -2.435  -0.114  0.00  0.00     0.030 H 
ATOM     20  H12 <0> d          -0.933  -2.334  -1.059  0.00  0.00     0.030 H 
ENDBRANCH  15  17
BRANCH  15  21
ATOM     21  O1  <0> d          -2.066  -0.171   1.242  0.00  0.00    -0.396 OA
ATOM     22  H13 <0> d          -2.980  -0.475   1.318  0.00  0.00     0.210 HD
ENDBRANCH  15  21
ENDBRANCH  12  15
ENDBRANCH   1  12
TORSDOF 7
