REMARK  4 active torsions:
REMARK  status: ('A' for Active; 'I' for Inactive)
REMARK    1  A    between atoms: C1_1  and  C2_2 
REMARK    2  A    between atoms: C4_4  and  O1_14 
REMARK    3  A    between atoms: C8_11  and  C9_12 
REMARK    4  A    between atoms: C8_11  and  C10_13 
ROOT
ATOM      1  C2  <0> d           1.051   0.482   2.246  0.00  0.00    -0.080 C 
ATOM      2  C3  <0> d           0.153   1.409   2.490  0.00  0.00    -0.073 C 
ATOM      3  C4  <0> d          -0.570   2.069   1.341  0.00  0.00     0.056 C 
ATOM      4  H1  <0> d          -0.421   3.148   1.391  0.00  0.00     0.089 H 
ATOM      5  C5  <0> d          -0.019   1.538   0.011  0.00  0.00    -0.018 C 
ATOM      6  H2  <0> d          -0.459   1.997  -0.875  0.00  0.00     0.045 H 
ATOM      7  C6  <0> d           0.002  -0.004   0.002  0.00  0.00    -0.051 C 
ATOM      8  C7  <0> d           1.317   0.132   0.793  0.00  0.00    -0.025 C 
ATOM      9  H3  <0> d           2.058  -0.650   0.629  0.00  0.00     0.048 H 
ATOM     10  C8  <0> d           1.516   1.444  -0.005  0.00  0.00    -0.034 C 
ATOM     11  H7  <0> d          -0.067   1.698   3.508  0.00  0.00     0.081 H 
ATOM     12  H8  <0> d          -0.809  -0.459   0.570  0.00  0.00     0.034 H 
ATOM     13  H9  <0> d           0.127  -0.438  -0.990  0.00  0.00     0.034 H 
ENDROOT
BRANCH  10  14
ATOM     14  C9  <0> d           2.111   1.237  -1.399  0.00  0.00    -0.068 C 
ATOM     15  H10 <0> d           1.833   2.074  -2.040  0.00  0.00     0.028 H 
ATOM     16  H11 <0> d           3.197   1.181  -1.326  0.00  0.00     0.028 H 
ATOM     17  H12 <0> d           1.727   0.310  -1.825  0.00  0.00     0.028 H 
ENDBRANCH  10  14
BRANCH  10  18
ATOM     18  C10 <0> d           2.213   2.551   0.789  0.00  0.00    -0.068 C 
ATOM     19  H13 <0> d           1.898   2.505   1.831  0.00  0.00     0.028 H 
ATOM     20  H14 <0> d           3.293   2.416   0.730  0.00  0.00     0.028 H 
ATOM     21  H15 <0> d           1.946   3.521   0.370  0.00  0.00     0.028 H 
ENDBRANCH  10  18
BRANCH   3  22
ATOM     22  O1  <0> d          -1.966   1.778   1.428  0.00  0.00    -0.391 OA
ATOM     23  H16 <0> d          -2.382   2.086   2.245  0.00  0.00     0.210 HD
ENDBRANCH   3  22
BRANCH   1  24
ATOM     24  C1  <0> d           1.789  -0.206   3.365  0.00  0.00    -0.054 C 
ATOM     25  H4  <0> d           2.699   0.348   3.595  0.00  0.00     0.033 H 
ATOM     26  H5  <0> d           1.154  -0.245   4.250  0.00  0.00     0.033 H 
ATOM     27  H6  <0> d           2.048  -1.220   3.060  0.00  0.00     0.033 H 
ENDBRANCH   1  24
TORSDOF 4
