REMARK  0 active torsions:
REMARK  status: ('A' for Active; 'I' for Inactive)
ROOT
ATOM      1  C1  <0> d           1.178   2.046   0.002  0.00  0.00    -0.007 A 
ATOM      2  C2  <0> d           1.145   3.444   0.010  0.00  0.00     0.053 A 
ATOM      3  C3  <0> d          -0.102   4.077   0.025  0.00  0.00    -0.007 A 
ATOM      4  C4  <0> d          -1.248   3.301   0.032  0.00  0.00     0.213 A 
ATOM      5  N1  <0> d          -1.174   1.983   0.018  0.00  0.00    -0.191 NA
ATOM      6  C5  <0> d          -0.016   1.347   0.009  0.00  0.00     0.213 A 
ATOM      7  F1  <0> d           0.002  -0.004   0.002  0.00  0.00    -0.184 F 
ATOM      8  F2  <0> d          -2.458   3.901   0.046  0.00  0.00    -0.184 F 
ATOM      9  C6  <0> d           2.357   4.207   0.003  0.00  0.00     0.099 C 
ATOM     10  N2  <0> d           3.318   4.813  -0.003  0.00  0.00    -0.191 NA
ATOM     11  H1  <0> d           2.120   1.519  -0.010  0.00  0.00     0.093 H 
ATOM     12  H2  <0> d          -0.170   5.154   0.032  0.00  0.00     0.093 H 
ENDROOT
TORSDOF 0
