REMARK  5 active torsions:
REMARK  status: ('A' for Active; 'I' for Inactive)
REMARK    1  A    between atoms: C1_1  and  C2_2 
REMARK    2  A    between atoms: C2_2  and  C3_3 
REMARK    3  A    between atoms: C3_3  and  O2_5 
REMARK    4  A    between atoms: O2_5  and  C4_6 
REMARK    5  A    between atoms: C4_6  and  C5_7 
ROOT
ATOM      1  C4  <0> d          -0.013   1.086   0.008  0.00  0.00     0.053 C 
ATOM      2  H7  <0> d           0.002  -0.004   0.002  0.00  0.00     0.079 H 
ATOM      3  H8  <0> d           1.010   1.463   0.000  0.00  0.00     0.079 H 
ENDROOT
BRANCH   1   4
ATOM      4  O2  <0> d          -0.692   1.554   1.203  0.00  0.00    -0.319 OA
BRANCH   4   5
ATOM      5  C3  <0> d          -0.166   1.194   2.384  0.00  0.00     0.258 C 
ATOM      6  O1  <0> d           0.829   0.510   2.418  0.00  0.00    -0.265 OA
BRANCH   5   7
ATOM      7  C2  <0> d          -0.817   1.643   3.667  0.00  0.00     0.013 C 
ATOM      8  H5  <0> d          -0.831   2.732   3.706  0.00  0.00     0.047 H 
ATOM      9  H6  <0> d          -1.839   1.265   3.708  0.00  0.00     0.047 H 
BRANCH   7  10
ATOM     10  C1  <0> d          -0.025   1.100   4.858  0.00  0.00    -0.068 C 
ATOM     11  H2  <0> d          -0.011   0.011   4.819  0.00  0.00     0.028 H 
ATOM     12  H3  <0> d           0.997   1.478   4.817  0.00  0.00     0.028 H 
ATOM     13  H4  <0> d          -0.495   1.424   5.786  0.00  0.00     0.028 H 
ENDBRANCH   7  10
ENDBRANCH   5   7
ENDBRANCH   4   5
ENDBRANCH   1   4
BRANCH   1  14
ATOM     14  C5  <0> d          -0.753   1.593  -1.232  0.00  0.00     0.059 C 
ATOM     15  H1  <0> d          -0.860   2.676  -1.182  0.00  0.00     0.086 H 
ATOM     16  O3  <0> d          -2.049   0.977  -1.313  0.00  0.00    -0.384 OA
ATOM     17  C8  <0> d          -2.340   0.796  -2.717  0.00  0.00     0.020 C 
ATOM     18  C7  <0> d          -0.982   0.352  -3.317  0.00  0.00    -0.043 C 
ATOM     19  H13 <0> d          -2.668   1.736  -3.163  0.00  0.00     0.074 H 
ATOM     20  H14 <0> d          -3.094   0.022  -2.860  0.00  0.00     0.074 H 
ATOM     21  C6  <0> d           0.025   1.201  -2.503  0.00  0.00    -0.037 C 
ATOM     22  H11 <0> d          -0.927   0.596  -4.378  0.00  0.00     0.036 H 
ATOM     23  H12 <0> d          -0.814  -0.712  -3.154  0.00  0.00     0.036 H 
ATOM     24  H9  <0> d           0.315   2.090  -3.062  0.00  0.00     0.036 H 
ATOM     25  H10 <0> d           0.903   0.608  -2.245  0.00  0.00     0.036 H 
ENDBRANCH   1  14
TORSDOF 5
