REMARK  3 active torsions:
REMARK  status: ('A' for Active; 'I' for Inactive)
REMARK    1  A    between atoms: C1_1  and  O1_2 
REMARK    2  A    between atoms: O1_2  and  C2_3 
REMARK    3  A    between atoms: C7_8  and  O2_9 
ROOT
ATOM      1  C2  <0> d          -0.787   2.893   1.346  0.00  0.00     0.101 A 
ATOM      2  C3  <0> d          -0.259   3.751   0.395  0.00  0.00    -0.045 A 
ATOM      3  C4  <0> d          -0.367   5.119   0.560  0.00  0.00    -0.043 A 
ATOM      4  C5  <0> d          -1.004   5.635   1.676  0.00  0.00     0.119 A 
ATOM      5  C6  <0> d          -1.533   4.783   2.630  0.00  0.00    -0.011 A 
ATOM      6  C7  <0> d          -1.432   3.411   2.466  0.00  0.00     0.101 A 
ATOM      7  F1  <0> d          -1.108   6.973   1.835  0.00  0.00    -0.206 F 
ATOM      8  H4  <0> d           0.237   3.350  -0.476  0.00  0.00     0.088 H 
ATOM      9  H5  <0> d           0.045   5.786  -0.182  0.00  0.00     0.088 H 
ATOM     10  H6  <0> d          -2.029   5.188   3.500  0.00  0.00     0.092 H 
ENDROOT
BRANCH   1  11
ATOM     11  O1  <0> d          -0.682   1.547   1.184  0.00  0.00    -0.353 OA
BRANCH  11  12
ATOM     12  C1  <0> d          -0.013   1.086   0.008  0.00  0.00     0.010 C 
ATOM     13  H1  <0> d           0.002  -0.004   0.002  0.00  0.00     0.066 H 
ATOM     14  H2  <0> d           1.010   1.463   0.000  0.00  0.00     0.066 H 
ATOM     15  H3  <0> d          -0.540   1.447  -0.875  0.00  0.00     0.066 H 
ENDBRANCH  11  12
ENDBRANCH   1  11
BRANCH   6  16
ATOM     16  O2  <0> d          -1.956   2.572   3.399  0.00  0.00    -0.358 OA
ATOM     17  H7  <0> d          -1.341   2.337   4.106  0.00  0.00     0.217 HD
ENDBRANCH   6  16
TORSDOF 3
