REMARK  2 active torsions:
REMARK  status: ('A' for Active; 'I' for Inactive)
REMARK    1  A    between atoms: C1_1  and  C2_2 
REMARK    2  A    between atoms: C2_2  and  C9_13 
ROOT
ATOM      1  C2  <0> d           0.002  -0.004   0.002  0.00  0.00     0.040 C 
ATOM      2  C3  <0> d           0.766  -0.604  -1.194  0.00  0.00     0.061 C 
ATOM      3  H1  <0> d           0.127  -1.015  -1.976  0.00  0.00     0.086 H 
ATOM      4  C4  <0> d           1.274  -1.636  -0.191  0.00  0.00     0.031 C 
ATOM      5  H2  <0> d           0.584  -2.474  -0.083  0.00  0.00     0.055 H 
ATOM      6  C5  <0> d           1.075  -0.601   0.890  0.00  0.00     0.144 C 
ATOM      7  O1  <0> d           1.554  -0.358   1.972  0.00  0.00    -0.297 OA
ATOM      8  C6  <0> d           2.700  -2.107  -0.353  0.00  0.00    -0.051 C 
ATOM      9  C7  <0> d           3.620  -1.050  -0.938  0.00  0.00    -0.044 C 
ATOM     10  C8  <0> d           2.958  -0.349  -2.121  0.00  0.00     0.020 C 
ATOM     11  O2  <0> d           1.760   0.295  -1.688  0.00  0.00    -0.384 OA
ATOM     12  H6  <0> d           3.084  -2.404   0.624  0.00  0.00     0.034 H 
ATOM     13  H7  <0> d           2.708  -2.979  -1.008  0.00  0.00     0.034 H 
ATOM     14  H8  <0> d           3.854  -0.313  -0.169  0.00  0.00     0.036 H 
ATOM     15  H9  <0> d           4.543  -1.523  -1.273  0.00  0.00     0.036 H 
ATOM     16  H10 <0> d           3.641   0.393  -2.535  0.00  0.00     0.074 H 
ATOM     17  H11 <0> d           2.707  -1.083  -2.886  0.00  0.00     0.074 H 
ENDROOT
BRANCH   1  18
ATOM     18  C1  <0> d          -0.019   1.526   0.010  0.00  0.00    -0.060 C 
ATOM     19  H3  <0> d           1.004   1.903   0.003  0.00  0.00     0.029 H 
ATOM     20  H4  <0> d          -0.546   1.887  -0.873  0.00  0.00     0.029 H 
ATOM     21  H5  <0> d          -0.529   1.877   0.907  0.00  0.00     0.029 H 
ENDBRANCH   1  18
BRANCH   1  22
ATOM     22  C9  <0> d          -1.383  -0.618   0.217  0.00  0.00    -0.060 C 
ATOM     23  H12 <0> d          -2.002  -0.433  -0.661  0.00  0.00     0.029 H 
ATOM     24  H13 <0> d          -1.284  -1.692   0.372  0.00  0.00     0.029 H 
ATOM     25  H14 <0> d          -1.849  -0.165   1.092  0.00  0.00     0.029 H 
ENDBRANCH   1  22
TORSDOF 2
