REMARK  3 active torsions:
REMARK  status: ('A' for Active; 'I' for Inactive)
REMARK    1  A    between atoms: C3_3  and  C7_9 
REMARK    2  A    between atoms: C4_4  and  N2_8 
REMARK    3  A    between atoms: C5_5  and  N1_7 
ROOT
ATOM      1  C1  <0> d          -0.068   0.134  -0.023  0.00  0.00    -0.080 A 
ATOM      2  C2  <0> d           0.066   1.504  -0.003  0.00  0.00    -0.064 A 
ATOM      3  C3  <0> d           1.340   2.083   0.014  0.00  0.00     0.069 A 
ATOM      4  C4  <0> d           2.475   1.260   0.011  0.00  0.00     0.069 A 
ATOM      5  C5  <0> d           2.321  -0.127  -0.009  0.00  0.00     0.053 A 
ATOM      6  C6  <0> d           1.052  -0.681  -0.026  0.00  0.00    -0.055 A 
ATOM      7  H1  <0> d          -1.054  -0.308  -0.035  0.00  0.00     0.083 H 
ATOM      8  H2  <0> d          -0.812   2.133  -0.005  0.00  0.00     0.085 H 
ATOM      9  H3  <0> d           0.935  -1.755  -0.042  0.00  0.00     0.087 H 
ENDROOT
BRANCH   3  10
ATOM     10  C7  <0> d           1.488   3.548   0.036  0.00  0.00     0.211 C 
ATOM     11  O1  <0> d           2.591   4.049  -0.058  0.00  0.00    -0.644 OA
ATOM     12  O2  <0> d           0.399   4.333   0.159  0.00  0.00    -0.644 OA
ENDBRANCH   3  10
BRANCH   4  13
ATOM     13  N2  <0> d           3.748   1.823   0.029  0.00  0.00    -0.396 N 
ATOM     14  H6  <0> d           4.529   1.253   0.109  0.00  0.00     0.156 HD
ATOM     15  H7  <0> d           3.853   2.784  -0.040  0.00  0.00     0.156 HD
ENDBRANCH   4  13
BRANCH   5  16
ATOM     16  N1  <0> d           3.449  -0.957  -0.012  0.00  0.00    -0.397 N 
ATOM     17  H4  <0> d           3.341  -1.921  -0.025  0.00  0.00     0.156 HD
ATOM     18  H5  <0> d           4.337  -0.569   0.000  0.00  0.00     0.156 HD
ENDBRANCH   5  16
TORSDOF 3
