REMARK  4 active torsions:
REMARK  status: ('A' for Active; 'I' for Inactive)
REMARK    1  A    between atoms: C1_1  and  O1_2 
REMARK    2  A    between atoms: O1_2  and  C2_3 
REMARK    3  A    between atoms: C3_4  and  O2_5 
REMARK    4  A    between atoms: O2_5  and  C4_6 
ROOT
ATOM      1  C2  <0> d          -0.787   2.893   1.346  0.00  0.00     0.033 C 
ATOM      2  C3  <0> d          -1.394   3.384   2.411  0.00  0.00     0.033 C 
ATOM      3  H4  <0> d          -0.375   3.561   0.604  0.00  0.00     0.125 H 
ATOM      4  H5  <0> d          -1.806   2.716   3.154  0.00  0.00     0.125 H 
ENDROOT
BRANCH   1   5
ATOM      5  O1  <0> d          -0.682   1.547   1.184  0.00  0.00    -0.366 OA
BRANCH   5   6
ATOM      6  C1  <0> d          -0.013   1.086   0.008  0.00  0.00     0.009 C 
ATOM      7  H1  <0> d           0.002  -0.004   0.002  0.00  0.00     0.066 H 
ATOM      8  H2  <0> d           1.010   1.463   0.000  0.00  0.00     0.066 H 
ATOM      9  H3  <0> d          -0.540   1.447  -0.875  0.00  0.00     0.066 H 
ENDBRANCH   5   6
ENDBRANCH   1   5
BRANCH   2  10
ATOM     10  O2  <0> d          -1.500   4.730   2.574  0.00  0.00    -0.366 OA
BRANCH  10  11
ATOM     11  C4  <0> d          -2.169   5.191   3.750  0.00  0.00     0.009 C 
ATOM     12  H6  <0> d          -1.642   4.830   4.633  0.00  0.00     0.066 H 
ATOM     13  H7  <0> d          -2.184   6.280   3.756  0.00  0.00     0.066 H 
ATOM     14  H8  <0> d          -3.192   4.813   3.757  0.00  0.00     0.066 H 
ENDBRANCH  10  11
ENDBRANCH   2  10
TORSDOF 4
