REMARK  4 active torsions:
REMARK  status: ('A' for Active; 'I' for Inactive)
REMARK    1  A    between atoms: C1_1  and  C2_2 
REMARK    2  A    between atoms: C2_2  and  O1_3 
REMARK    3  A    between atoms: O1_3  and  C3_4 
REMARK    4  A    between atoms: C6_8  and  N3_10 
ROOT
ATOM      1  C3  <0> d          -2.402   3.620   0.033  0.00  0.00     0.270 A 
ATOM      2  N1  <0> d          -3.560   2.979   0.035  0.00  0.00    -0.219 NA
ATOM      3  C4  <0> d          -3.606   1.655   0.028  0.00  0.00     0.010 A 
ATOM      4  C5  <0> d          -2.426   0.938   0.019  0.00  0.00    -0.022 A 
ATOM      5  C6  <0> d          -1.220   1.642   0.017  0.00  0.00     0.127 A 
ATOM      6  N2  <0> d          -1.250   2.971   0.030  0.00  0.00    -0.190 NA
ATOM      7  H6  <0> d          -4.557   1.142   0.029  0.00  0.00     0.115 H 
ATOM      8  H7  <0> d          -2.435  -0.142   0.013  0.00  0.00     0.091 H 
ENDROOT
BRANCH   1   9
ATOM      9  O1  <0> d          -2.398   4.974   0.040  0.00  0.00    -0.320 OA
BRANCH   9  10
ATOM     10  C2  <0> d          -3.669   5.627   0.050  0.00  0.00     0.026 C 
ATOM     11  H4  <0> d          -4.231   5.341  -0.839  0.00  0.00     0.074 H 
ATOM     12  H5  <0> d          -4.222   5.332   0.941  0.00  0.00     0.074 H 
BRANCH  10  13
ATOM     13  C1  <0> d          -3.463   7.144   0.057  0.00  0.00    -0.056 C 
ATOM     14  H1  <0> d          -2.901   7.430   0.946  0.00  0.00     0.030 H 
ATOM     15  H2  <0> d          -2.909   7.439  -0.834  0.00  0.00     0.030 H 
ATOM     16  H3  <0> d          -4.432   7.642   0.064  0.00  0.00     0.030 H 
ENDBRANCH  10  13
ENDBRANCH   9  10
ENDBRANCH   1   9
BRANCH   5  17
ATOM     17  N3  <0> d          -0.011   0.966   0.007  0.00  0.00    -0.384 N 
ATOM     18  H8  <0> d           0.002  -0.004   0.002  0.00  0.00     0.157 HD
ATOM     19  H9  <0> d           0.822   1.462   0.002  0.00  0.00     0.157 HD
ENDBRANCH   5  17
TORSDOF 4
