REMARK  2 active torsions:
REMARK  status: ('A' for Active; 'I' for Inactive)
REMARK    1  A    between atoms: C1_1  and  C2_2 
REMARK    2  A    between atoms: C5_5  and  C8_9 
ROOT
ATOM      1  C2  <0> d           0.002  -0.004   0.002  0.00  0.00    -0.023 A 
ATOM      2  C3  <0> d           0.006  -0.686  -1.201  0.00  0.00    -0.073 A 
ATOM      3  C4  <0> d           0.024  -2.066  -1.216  0.00  0.00    -0.072 A 
ATOM      4  C5  <0> d           0.040  -2.774  -0.014  0.00  0.00    -0.034 A 
ATOM      5  C6  <0> d           0.037  -2.083   1.197  0.00  0.00    -0.035 A 
ATOM      6  C7  <0> d           0.023  -0.700   1.200  0.00  0.00     0.123 A 
ATOM      7  F1  <0> d           0.024  -0.028   2.371  0.00  0.00    -0.206 F 
ATOM      8  H4  <0> d          -0.006  -0.138  -2.131  0.00  0.00     0.084 H 
ATOM      9  H5  <0> d           0.026  -2.596  -2.157  0.00  0.00     0.084 H 
ATOM     10  H6  <0> d           0.049  -2.625   2.131  0.00  0.00     0.089 H 
ENDROOT
BRANCH   4  11
ATOM     11  C8  <0> d           0.060  -4.252  -0.024  0.00  0.00    -0.082 C 
ATOM     12  C9  <0> d           0.074  -4.923   1.119  0.00  0.00    -0.120 C 
ATOM     13  H8  <0> d           0.072  -4.389   2.058  0.00  0.00     0.066 H 
ATOM     14  H9  <0> d           0.089  -6.003   1.112  0.00  0.00     0.066 H 
ATOM     15  H7  <0> d           0.062  -4.786  -0.963  0.00  0.00     0.083 H 
ENDBRANCH   4  11
BRANCH   1  16
ATOM     16  C1  <0> d          -0.018   1.503   0.010  0.00  0.00    -0.048 C 
ATOM     17  H1  <0> d           1.004   1.880   0.003  0.00  0.00     0.033 H 
ATOM     18  H2  <0> d          -0.545   1.864  -0.873  0.00  0.00     0.033 H 
ATOM     19  H3  <0> d          -0.529   1.854   0.907  0.00  0.00     0.033 H 
ENDBRANCH   1  16
TORSDOF 2
