REMARK  9 active torsions:
REMARK  status: ('A' for Active; 'I' for Inactive)
REMARK    1  A    between atoms: C1_1  and  C2_2 
REMARK    2  A    between atoms: C2_2  and  C3_4 
REMARK    3  A    between atoms: C2_2  and  O2_13 
REMARK    4  A    between atoms: C3_4  and  C4_5 
REMARK    5  A    between atoms: C4_5  and  C5_7 
REMARK    6  A    between atoms: C4_5  and  O1_12 
REMARK    7  A    between atoms: C5_7  and  C6_8 
REMARK    8  A    between atoms: C6_8  and  C7_9 
REMARK    9  A    between atoms: C7_9  and  C8_10 
ROOT
ATOM      1  C4  <0> d           0.011   1.072   2.506  0.00  0.00     0.038 C 
ATOM      2  H2  <0> d           1.057   1.375   2.454  0.00  0.00     0.083 H 
ENDROOT
BRANCH   1   3
ATOM      3  C3  <0> d          -0.630   1.667   3.762  0.00  0.00    -0.018 C 
ATOM      4  H6  <0> d          -0.648   2.754   3.681  0.00  0.00     0.040 H 
ATOM      5  H7  <0> d          -1.649   1.293   3.861  0.00  0.00     0.040 H 
BRANCH   3   6
ATOM      6  C2  <0> d           0.184   1.261   4.992  0.00  0.00     0.034 C 
ATOM      7  H1  <0> d           1.224   1.557   4.853  0.00  0.00     0.082 H 
BRANCH   6   8
ATOM      8  C1  <0> d          -0.383   1.956   6.231  0.00  0.00    -0.052 C 
ATOM      9  H3  <0> d          -1.422   1.660   6.370  0.00  0.00     0.030 H 
ATOM     10  H4  <0> d           0.198   1.667   7.107  0.00  0.00     0.030 H 
ATOM     11  H5  <0> d          -0.327   3.037   6.099  0.00  0.00     0.030 H 
ENDBRANCH   6   8
BRANCH   6  12
ATOM     12  O2  <0> d           0.112  -0.156   5.165  0.00  0.00    -0.396 OA
ATOM     13  H18 <0> d          -0.786  -0.491   5.294  0.00  0.00     0.210 HD
ENDBRANCH   6  12
ENDBRANCH   3   6
ENDBRANCH   1   3
BRANCH   1  14
ATOM     14  C5  <0> d          -0.729   1.579   1.267  0.00  0.00    -0.041 C 
ATOM     15  H8  <0> d          -0.744   2.669   1.273  0.00  0.00     0.036 H 
ATOM     16  H9  <0> d          -1.751   1.202   1.275  0.00  0.00     0.036 H 
BRANCH  14  17
ATOM     17  C6  <0> d          -0.013   1.086   0.008  0.00  0.00    -0.060 C 
ATOM     18  H10 <0> d           0.002  -0.004   0.002  0.00  0.00     0.033 H 
ATOM     19  H11 <0> d           1.010   1.463   0.000  0.00  0.00     0.033 H 
BRANCH  17  20
ATOM     20  C7  <0> d          -0.753   1.593  -1.232  0.00  0.00    -0.050 C 
ATOM     21  H12 <0> d          -1.775   1.215  -1.224  0.00  0.00     0.038 H 
ATOM     22  H13 <0> d          -0.767   2.683  -1.226  0.00  0.00     0.038 H 
BRANCH  20  23
ATOM     23  C8  <0> d          -0.047   1.107  -2.471  0.00  0.00    -0.112 C 
ATOM     24  C9  <0> d          -0.708   0.432  -3.379  0.00  0.00    -0.125 C 
ATOM     25  H15 <0> d          -1.759   0.225  -3.239  0.00  0.00     0.066 H 
ATOM     26  H16 <0> d          -0.203   0.084  -4.268  0.00  0.00     0.066 H 
ATOM     27  H14 <0> d           1.003   1.314  -2.611  0.00  0.00     0.075 H 
ENDBRANCH  20  23
ENDBRANCH  17  20
ENDBRANCH  14  17
ENDBRANCH   1  14
BRANCH   1  28
ATOM     28  O1  <0> d          -0.070  -0.353   2.560  0.00  0.00    -0.395 OA
ATOM     29  H17 <0> d          -0.973  -0.695   2.607  0.00  0.00     0.210 HD
ENDBRANCH   1  28
TORSDOF 9
