REMARK  1 active torsions:
REMARK  status: ('A' for Active; 'I' for Inactive)
REMARK    1  A    between atoms: C2_2  and  C3_3 
ROOT
ATOM      1  C3  <0> d          -1.190   3.201   0.025  0.00  0.00    -0.015 A 
ATOM      2  C4  <0> d           0.007   3.918   0.029  0.00  0.00    -0.071 A 
ATOM      3  C5  <0> d          -0.018   5.297   0.032  0.00  0.00    -0.082 A 
ATOM      4  C6  <0> d          -1.227   5.970   0.042  0.00  0.00    -0.081 A 
ATOM      5  C7  <0> d          -2.417   5.267   0.043  0.00  0.00    -0.061 A 
ATOM      6  C8  <0> d          -2.406   3.886   0.035  0.00  0.00     0.044 A 
ATOM      7 Cl1  <0> d          -3.901   3.003   0.037  0.00  0.00    -0.083 Cl
ATOM      8  H4  <0> d           0.952   3.394   0.026  0.00  0.00     0.084 H 
ATOM      9  H5  <0> d           0.908   5.853   0.032  0.00  0.00     0.083 H 
ATOM     10  H6  <0> d          -1.241   7.050   0.049  0.00  0.00     0.083 H 
ATOM     11  H7  <0> d          -3.358   5.798   0.050  0.00  0.00     0.086 H 
ENDROOT
BRANCH   1  12
ATOM     12  C2  <0> d          -1.170   1.723   0.017  0.00  0.00    -0.080 C 
ATOM     13  C1  <0> d          -0.013   1.076   0.008  0.00  0.00    -0.120 C 
ATOM     14  H1  <0> d           0.002  -0.004   0.002  0.00  0.00     0.066 H 
ATOM     15  H2  <0> d           0.915   1.629   0.002  0.00  0.00     0.066 H 
ATOM     16  H3  <0> d          -2.098   1.170   0.018  0.00  0.00     0.083 H 
ENDBRANCH   1  12
TORSDOF 1
