REMARK  8 active torsions:
REMARK  status: ('A' for Active; 'I' for Inactive)
REMARK    1  A    between atoms: C1_1  and  C2_2 
REMARK    2  A    between atoms: C2_2  and  C3_4 
REMARK    3  A    between atoms: C2_2  and  O3_10 
REMARK    4  A    between atoms: C3_4  and  C4_5 
REMARK    5  A    between atoms: C4_5  and  O1_6 
REMARK    6  A    between atoms: O1_6  and  C5_7 
REMARK    7  A    between atoms: C5_7  and  C6_9 
REMARK    8  A    between atoms: O3_10  and  C7_11 
ROOT
ATOM      1  C3  <0> d          -1.433  -0.534   0.013  0.00  0.00    -0.021 C 
ATOM      2  H5  <0> d          -1.944  -0.182   0.910  0.00  0.00     0.040 H 
ATOM      3  H6  <0> d          -1.960  -0.173  -0.870  0.00  0.00     0.040 H 
ENDROOT
BRANCH   1   4
ATOM      4  C2  <0> d          -1.413  -2.063   0.004  0.00  0.00     0.036 C 
ATOM      5  H1  <0> d          -0.826  -2.414  -0.845  0.00  0.00     0.082 H 
BRANCH   4   6
ATOM      6  C1  <0> d          -2.844  -2.592  -0.110  0.00  0.00    -0.052 C 
ATOM      7  H2  <0> d          -2.829  -3.682  -0.116  0.00  0.00     0.030 H 
ATOM      8  H3  <0> d          -3.430  -2.242   0.739  0.00  0.00     0.030 H 
ATOM      9  H4  <0> d          -3.292  -2.230  -1.036  0.00  0.00     0.030 H 
ENDBRANCH   4   6
BRANCH   4  10
ATOM     10  O3  <0> d          -0.825  -2.539   1.217  0.00  0.00    -0.391 OA
BRANCH  10  11
ATOM     11  C7  <0> d          -0.145  -3.788   1.083  0.00  0.00     0.004 C 
ATOM     12  H12 <0> d          -0.849  -4.550   0.747  0.00  0.00     0.066 H 
ATOM     13  H13 <0> d           0.659  -3.688   0.354  0.00  0.00     0.066 H 
ATOM     14  H14 <0> d           0.272  -4.080   2.047  0.00  0.00     0.066 H 
ENDBRANCH  10  11
ENDBRANCH   4  10
ENDBRANCH   1   4
BRANCH   1  15
ATOM     15  C4  <0> d           0.002  -0.004   0.002  0.00  0.00     0.031 C 
ATOM     16  H7  <0> d           0.512  -0.356  -0.895  0.00  0.00     0.075 H 
ATOM     17  H8  <0> d           0.529  -0.365   0.885  0.00  0.00     0.075 H 
BRANCH  15  18
ATOM     18  O1  <0> d          -0.018   1.448   0.010  0.00  0.00    -0.322 OA
BRANCH  18  19
ATOM     19  C5  <0> d           1.170   2.073   0.002  0.00  0.00     0.254 C 
ATOM     20  O2  <0> d           2.192   1.429  -0.011  0.00  0.00    -0.266 OA
BRANCH  19  21
ATOM     21  C6  <0> d           1.228   3.579   0.010  0.00  0.00     0.004 C 
ATOM     22  H9  <0> d           0.216   3.982   0.021  0.00  0.00     0.041 H 
ATOM     23  H10 <0> d           1.764   3.918   0.896  0.00  0.00     0.041 H 
ATOM     24  H11 <0> d           1.747   3.927  -0.884  0.00  0.00     0.041 H 
ENDBRANCH  19  21
ENDBRANCH  18  19
ENDBRANCH  15  18
ENDBRANCH   1  15
TORSDOF 8
