REMARK  1 active torsions:
REMARK  status: ('A' for Active; 'I' for Inactive)
REMARK    1  A    between atoms: C4_6  and  C5_7 
ROOT
ATOM      1  C1  <0> d          -0.710   3.213   0.026  0.00  0.00    -0.029 A 
ATOM      2  C2  <0> d          -1.145   1.869   0.017  0.00  0.00     0.062 A 
ATOM      3  C3  <0> d          -0.013   1.076   0.008  0.00  0.00    -0.002 A 
ATOM      4  N1  <0> d           1.067   1.877   0.002  0.00  0.00    -0.359 N 
ATOM      5  H1  <0> d           2.076   1.439  -0.010  0.00  0.00     0.165 HD
ATOM      6  C4  <0> d           0.655   3.192   0.013  0.00  0.00     0.111 A 
ATOM      7  C6  <0> d          -2.502   1.414   0.020  0.00  0.00     0.101 C 
ATOM      8  N2  <0> d          -3.579   1.053   0.023  0.00  0.00    -0.191 NA
ATOM      9  H2  <0> d          -1.339   4.091   0.037  0.00  0.00     0.089 H 
ATOM     10  H3  <0> d           0.002  -0.004   0.002  0.00  0.00     0.113 H 
ENDROOT
BRANCH   6  11
ATOM     11  C5  <0> d           1.532   4.367   0.011  0.00  0.00     0.226 C 
ATOM     12  O1  <0> d           1.052   5.484   0.022  0.00  0.00    -0.643 OA
ATOM     13  O2  <0> d           2.871   4.208  -0.003  0.00  0.00    -0.643 OA
ENDBRANCH   6  11
TORSDOF 1
