REMARK  4 active torsions:
REMARK  status: ('A' for Active; 'I' for Inactive)
REMARK    1  A    between atoms: C1_1  and  C2_2 
REMARK    2  A    between atoms: C2_2  and  C3_3 
REMARK    3  A    between atoms: C3_3  and  C4_4 
REMARK    4  A    between atoms: C5_7  and  O1_8 
ROOT
ATOM      1  C3  <0> d           0.718  -0.497  -1.257  0.00  0.00    -0.025 C 
ATOM      2  H6  <0> d           0.191  -0.136  -2.140  0.00  0.00     0.042 H 
ATOM      3  H7  <0> d           1.741  -0.120  -1.264  0.00  0.00     0.042 H 
ENDROOT
BRANCH   1   4
ATOM      4  C2  <0> d           0.002  -0.004   0.002  0.00  0.00    -0.063 C 
ATOM      5  H4  <0> d           0.529  -0.365   0.885  0.00  0.00     0.033 H 
ATOM      6  H5  <0> d          -1.020  -0.381   0.010  0.00  0.00     0.033 H 
BRANCH   4   7
ATOM      7  C1  <0> d          -0.019   1.526   0.010  0.00  0.00    -0.076 C 
ATOM      8  H1  <0> d           1.004   1.903   0.003  0.00  0.00     0.027 H 
ATOM      9  H2  <0> d          -0.546   1.887  -0.873  0.00  0.00     0.027 H 
ATOM     10  H3  <0> d          -0.529   1.877   0.907  0.00  0.00     0.027 H 
ENDBRANCH   4   7
ENDBRANCH   1   4
BRANCH   1  11
ATOM     11  C4  <0> d           0.739  -2.004  -1.265  0.00  0.00     0.032 A 
ATOM     12  N1  <0> d          -0.149  -2.808  -1.887  0.00  0.00    -0.280 N 
ATOM     13  N2  <0> d           0.227  -4.136  -1.649  0.00  0.00    -0.149 NA
ATOM     14  H8  <0> d          -0.915  -2.517  -2.407  0.00  0.00     0.189 HD
ATOM     15  C5  <0> d           1.308  -4.128  -0.907  0.00  0.00     0.183 A 
ATOM     16  C6  <0> d           1.654  -2.792  -0.655  0.00  0.00    -0.007 A 
ATOM     17  H10 <0> d           2.500  -2.453  -0.076  0.00  0.00     0.093 H 
BRANCH  15  18
ATOM     18  O1  <0> d           1.980  -5.224  -0.463  0.00  0.00    -0.344 OA
ATOM     19  H9  <0> d           2.673  -5.530  -1.063  0.00  0.00     0.219 HD
ENDBRANCH  15  18
ENDBRANCH   1  11
TORSDOF 4
