REMARK  0 active torsions:
REMARK  status: ('A' for Active; 'I' for Inactive)
ROOT
ATOM      1  C1  <0> d           1.719   0.016  -1.782  0.00  0.00    -0.058 C 
ATOM      2  C2  <0> d           0.276  -0.403  -1.467  0.00  0.00    -0.032 C 
ATOM      3  C3  <0> d           0.002  -0.004   0.002  0.00  0.00     0.125 C 
ATOM      4  H1  <0> d          -0.905  -0.451   0.408  0.00  0.00     0.099 H 
ATOM      5  C4  <0> d           1.269  -0.361   0.769  0.00  0.00     0.290 C 
ATOM      6  O1  <0> d           1.583  -1.458   1.169  0.00  0.00    -0.262 OA
ATOM      7  O2  <0> d           1.974   0.778   0.917  0.00  0.00    -0.288 OA
ATOM      8  C5  <0> d           1.396   1.757  -0.002  0.00  0.00     0.141 C 
ATOM      9  H2  <0> d           1.585   2.785   0.308  0.00  0.00     0.129 H 
ATOM     10  C6  <0> d           1.917   1.489  -1.419  0.00  0.00    -0.018 C 
ATOM     11  O3  <0> d          -0.018   1.446   0.010  0.00  0.00    -0.346 OA
ATOM     12  H3  <0> d           2.409  -0.597  -1.203  0.00  0.00     0.033 H 
ATOM     13  H4  <0> d           1.914  -0.124  -2.845  0.00  0.00     0.033 H 
ATOM     14  H5  <0> d           0.167  -1.481  -1.587  0.00  0.00     0.037 H 
ATOM     15  H6  <0> d          -0.415   0.118  -2.129  0.00  0.00     0.037 H 
ATOM     16  H7  <0> d           2.979   1.734  -1.465  0.00  0.00     0.040 H 
ATOM     17  H8  <0> d           1.372   2.113  -2.127  0.00  0.00     0.040 H 
ENDROOT
TORSDOF 0
