REMARK  0 active torsions:
REMARK  status: ('A' for Active; 'I' for Inactive)
ROOT
ATOM      1  C1  <0> d          -0.019   1.536   0.011  0.00  0.00    -0.061 C 
ATOM      2  C2  <0> d           1.454   1.996  -0.001  0.00  0.00    -0.061 C 
ATOM      3  C3  <0> d           2.235   0.792   0.584  0.00  0.00    -0.011 C 
ATOM      4  C4  <0> d           1.482  -0.419  -0.004  0.00  0.00     0.271 A 
ATOM      5  C5  <0> d           0.002  -0.004   0.002  0.00  0.00    -0.011 C 
ATOM      6  N1  <0> d           1.939  -0.693  -1.365  0.00  0.00     0.345 N 
ATOM      7  C6  <0> d           2.435  -2.079  -1.346  0.00  0.00     0.223 A 
ATOM      8  C7  <0> d           2.247  -2.582   0.064  0.00  0.00     0.250 A 
ATOM      9  O1  <0> d           2.544  -3.689   0.461  0.00  0.00    -0.271 OA
ATOM     10  N2  <0> d           1.697  -1.607   0.810  0.00  0.00    -0.323 N 
ATOM     11  H1  <0> d          -0.516   1.898   0.910  0.00  0.00     0.033 H 
ATOM     12  H2  <0> d          -0.533   1.907  -0.876  0.00  0.00     0.033 H 
ATOM     13  H3  <0> d           1.781   2.204  -1.020  0.00  0.00     0.033 H 
ATOM     14  H4  <0> d           1.583   2.877   0.628  0.00  0.00     0.033 H 
ATOM     15  H5  <0> d           3.272   0.803   0.247  0.00  0.00     0.039 H 
ATOM     16  H6  <0> d           2.182   0.789   1.673  0.00  0.00     0.039 H 
ATOM     17  H7  <0> d          -0.491  -0.390   0.895  0.00  0.00     0.039 H 
ATOM     18  H8  <0> d          -0.495  -0.380  -0.892  0.00  0.00     0.039 H 
ATOM     19  H9  <0> d           1.861  -2.691  -2.041  0.00  0.00     0.099 H 
ATOM     20  H10 <0> d           3.492  -2.101  -1.612  0.00  0.00     0.099 H 
ATOM     21  H11 <0> d           1.478  -1.683   1.752  0.00  0.00     0.165 HD
ENDROOT
TORSDOF 0
