REMARK  3 active torsions:
REMARK  status: ('A' for Active; 'I' for Inactive)
REMARK    1  A    between atoms: C1_1  and  O1_2 
REMARK    2  A    between atoms: O1_2  and  C2_3 
REMARK    3  A    between atoms: C6_7  and  C8_9 
ROOT
ATOM      1  C2  <0> d          -0.787   2.892   1.346  0.00  0.00     0.069 A 
ATOM      2  C3  <0> d          -0.252   3.750   0.395  0.00  0.00    -0.051 A 
ATOM      3  C4  <0> d          -0.362   5.119   0.551  0.00  0.00    -0.079 A 
ATOM      4  C5  <0> d          -0.994   5.643   1.661  0.00  0.00    -0.066 A 
ATOM      5  C6  <0> d          -1.530   4.788   2.626  0.00  0.00     0.043 A 
ATOM      6  C7  <0> d          -1.424   3.406   2.463  0.00  0.00    -0.034 A 
ATOM      7  H4  <0> d           0.247   3.346  -0.474  0.00  0.00     0.087 H 
ATOM      8  H5  <0> d           0.053   5.781  -0.194  0.00  0.00     0.083 H 
ATOM      9  H6  <0> d          -1.073   6.713   1.783  0.00  0.00     0.085 H 
ATOM     10  H7  <0> d          -1.837   2.740   3.206  0.00  0.00     0.089 H 
ENDROOT
BRANCH   1  11
ATOM     11  O1  <0> d          -0.682   1.547   1.184  0.00  0.00    -0.356 OA
BRANCH  11  12
ATOM     12  C1  <0> d          -0.013   1.086   0.008  0.00  0.00     0.010 C 
ATOM     13  H1  <0> d           0.002  -0.004   0.002  0.00  0.00     0.066 H 
ATOM     14  H2  <0> d           1.010   1.463   0.000  0.00  0.00     0.066 H 
ATOM     15  H3  <0> d          -0.540   1.447  -0.875  0.00  0.00     0.066 H 
ENDBRANCH  11  12
ENDBRANCH   1  11
BRANCH   5  16
ATOM     16  C8  <0> d          -2.207   5.345   3.815  0.00  0.00     0.209 C 
ATOM     17  O2  <0> d          -2.672   4.599   4.654  0.00  0.00    -0.644 OA
ATOM     18  O3  <0> d          -2.308   6.679   3.970  0.00  0.00    -0.644 OA
ENDBRANCH   5  16
TORSDOF 3
