REMARK  2 active torsions:
REMARK  status: ('A' for Active; 'I' for Inactive)
REMARK    1  A    between atoms: C1_1  and  C2_2 
REMARK    2  A    between atoms: C3_4  and  C4_7 
ROOT
ATOM      1  C4  <0> d           0.038  -3.206  -1.697  0.00  0.00     0.077 C 
ATOM      2  C5  <0> d           1.429  -3.569  -2.012  0.00  0.00     0.067 C 
ATOM      3  N3  <0> d           2.503  -3.849  -2.255  0.00  0.00    -0.197 NA
ATOM      4  H4  <0> d          -0.462  -4.055  -1.232  0.00  0.00     0.067 H 
ATOM      5  H5  <0> d          -0.484  -2.936  -2.615  0.00  0.00     0.067 H 
ENDROOT
BRANCH   1   6
ATOM      6  C3  <0> d           0.026  -2.034  -0.750  0.00  0.00     0.185 A 
ATOM      7  N1  <0> d           0.008  -0.776  -1.091  0.00  0.00    -0.208 NA
ATOM      8  C2  <0> d           0.002  -0.004   0.002  0.00  0.00     0.152 A 
ATOM      9  N2  <0> d           0.023  -0.767   1.057  0.00  0.00    -0.112 NA
ATOM     10  O1  <0> d           0.033  -2.107   0.587  0.00  0.00    -0.195 OA
BRANCH   8  11
ATOM     11  C1  <0> d          -0.018   1.503   0.010  0.00  0.00    -0.017 C 
ATOM     12  H1  <0> d           1.004   1.880   0.003  0.00  0.00     0.038 H 
ATOM     13  H2  <0> d          -0.545   1.864  -0.873  0.00  0.00     0.038 H 
ATOM     14  H3  <0> d          -0.529   1.854   0.907  0.00  0.00     0.038 H 
ENDBRANCH   8  11
ENDBRANCH   1   6
TORSDOF 2
