REMARK  3 active torsions:
REMARK  status: ('A' for Active; 'I' for Inactive)
REMARK    1  A    between atoms: C1_1  and  O1_2 
REMARK    2  A    between atoms: O1_2  and  C2_3 
REMARK    3  A    between atoms: C2_3  and  C3_5 
ROOT
ATOM      1  C3  <0> d          -1.100   1.905   0.017  0.00  0.00     0.180 A 
ATOM      2  C4  <0> d          -0.013   1.076   0.008  0.00  0.00     0.014 A 
ATOM      3  C5  <0> d           1.092   1.966   0.002  0.00  0.00     0.229 A 
ATOM      4  N1  <0> d           0.594   3.173   0.013  0.00  0.00    -0.099 NA
ATOM      5  O3  <0> d          -0.615   3.161   0.024  0.00  0.00    -0.205 OA
ATOM      6  O4  <0> d           2.407   1.630  -0.011  0.00  0.00    -0.168 OA
ATOM      7  H4  <0> d           0.002  -0.004   0.002  0.00  0.00     0.095 H 
ENDROOT
BRANCH   1   8
ATOM      8  C2  <0> d          -2.518   1.504   0.021  0.00  0.00     0.319 C 
ATOM      9  O2  <0> d          -2.817   0.326   0.016  0.00  0.00    -0.257 OA
BRANCH   8  10
ATOM     10  O1  <0> d          -3.484   2.443   0.029  0.00  0.00    -0.321 OA
BRANCH  10  11
ATOM     11  C1  <0> d          -4.859   1.975   0.033  0.00  0.00     0.013 C 
ATOM     12  H1  <0> d          -5.540   2.839   0.040  0.00  0.00     0.067 H 
ATOM     13  H2  <0> d          -5.035   1.362   0.928  0.00  0.00     0.067 H 
ATOM     14  H3  <0> d          -5.043   1.371  -0.868  0.00  0.00     0.067 H 
ENDBRANCH  10  11
ENDBRANCH   8  10
ENDBRANCH   1   8
TORSDOF 3
