REMARK  5 active torsions:
REMARK  status: ('A' for Active; 'I' for Inactive)
REMARK    1  A    between atoms: C1_1  and  C2_2 
REMARK    2  A    between atoms: C4_4  and  N3_10 
REMARK    3  A    between atoms: N1_5  and  C5_7 
REMARK    4  A    between atoms: C5_7  and  C6_8 
REMARK    5  A    between atoms: C6_8  and  O1_9 
ROOT
ATOM      1  C2  <0> d          -2.084   1.619   2.918  0.00  0.00     0.054 A 
ATOM      2  C3  <0> d          -1.301   2.777   2.930  0.00  0.00    -0.015 A 
ATOM      3  C4  <0> d          -0.448   2.714   1.870  0.00  0.00     0.119 A 
ATOM      4  N1  <0> d          -0.698   1.558   1.213  0.00  0.00    -0.252 N 
ATOM      5  N2  <0> d          -1.725   0.890   1.893  0.00  0.00    -0.176 NA
ATOM      6  H4  <0> d          -1.359   3.577   3.653  0.00  0.00     0.092 H 
ENDROOT
BRANCH   4   7
ATOM      7  C5  <0> d          -0.013   1.086   0.008  0.00  0.00     0.038 C 
ATOM      8  H5  <0> d           0.002  -0.004   0.002  0.00  0.00     0.070 H 
ATOM      9  H6  <0> d           1.010   1.463   0.000  0.00  0.00     0.070 H 
BRANCH   7  10
ATOM     10  C6  <0> d          -0.753   1.593  -1.232  0.00  0.00     0.033 C 
ATOM     11  H7  <0> d          -1.775   1.215  -1.224  0.00  0.00     0.076 H 
ATOM     12  H8  <0> d          -0.767   2.683  -1.226  0.00  0.00     0.076 H 
BRANCH  10  13
ATOM     13  O1  <0> d          -0.084   1.132  -2.407  0.00  0.00    -0.399 OA
ATOM     14  H9  <0> d          -0.499   1.416  -3.233  0.00  0.00     0.209 HD
ENDBRANCH  10  13
ENDBRANCH   7  10
ENDBRANCH   4   7
BRANCH   3  15
ATOM     15  N3  <0> d           0.506   3.667   1.524  0.00  0.00    -0.384 N 
ATOM     16  H10 <0> d           1.067   3.530   0.744  0.00  0.00     0.157 HD
ATOM     17  H11 <0> d           0.609   4.467   2.062  0.00  0.00     0.157 HD
ENDBRANCH   3  15
BRANCH   1  18
ATOM     18  C1  <0> d          -3.158   1.271   3.916  0.00  0.00    -0.034 C 
ATOM     19  H1  <0> d          -2.720   0.709   4.740  0.00  0.00     0.035 H 
ATOM     20  H2  <0> d          -3.609   2.186   4.299  0.00  0.00     0.035 H 
ATOM     21  H3  <0> d          -3.923   0.666   3.429  0.00  0.00     0.035 H 
ENDBRANCH   1  18
TORSDOF 5
