REMARK  3 active torsions:
REMARK  status: ('A' for Active; 'I' for Inactive)
REMARK    1  A    between atoms: C1_1  and  C2_2 
REMARK    2  A    between atoms: C2_2  and  C3_3 
REMARK    3  A    between atoms: C4_5  and  N4_9 
ROOT
ATOM      1  C3  <0> d          -0.018   1.503   0.010  0.00  0.00     0.165 A 
ATOM      2  N1  <0> d           1.058   2.291   0.004  0.00  0.00    -0.046 NA
ATOM      3  C4  <0> d           0.683   3.552   0.014  0.00  0.00     0.716 A 
ATOM      4  N2  <0> d          -0.666   3.583   0.027  0.00  0.00    -0.106 N 
ATOM      5  H1  <0> d          -1.229   4.373   0.036  0.00  0.00     0.208 HD
ATOM      6  N3  <0> d          -1.092   2.245   0.019  0.00  0.00    -0.144 NA
ENDROOT
BRANCH   1   7
ATOM      7  C2  <0> d           0.002  -0.004   0.002  0.00  0.00    -0.009 C 
ATOM      8  H5  <0> d          -0.888  -0.377  -0.505  0.00  0.00     0.044 H 
ATOM      9  H6  <0> d           0.892  -0.352  -0.522  0.00  0.00     0.044 H 
BRANCH   7  10
ATOM     10  C1  <0> d           0.023  -0.522   1.442  0.00  0.00    -0.070 C 
ATOM     11  H2  <0> d          -0.867  -0.173   1.966  0.00  0.00     0.028 H 
ATOM     12  H3  <0> d           0.037  -1.612   1.436  0.00  0.00     0.028 H 
ATOM     13  H4  <0> d           0.913  -0.149   1.949  0.00  0.00     0.028 H 
ENDBRANCH   7  10
ENDBRANCH   1   7
BRANCH   3  14
ATOM     14  N4  <0> d           1.523   4.651   0.012  0.00  0.00    -0.231 N 
ATOM     15  H7  <0> d           2.485   4.526   0.003  0.00  0.00     0.174 HD
ATOM     16  H8  <0> d           1.151   5.547   0.021  0.00  0.00     0.174 HD
ENDBRANCH   3  14
TORSDOF 3
