REMARK  2 active torsions:
REMARK  status: ('A' for Active; 'I' for Inactive)
REMARK    1  A    between atoms: C2_2  and  C4_7 
REMARK    2  A    between atoms: C3_4  and  N2_6 
ROOT
ATOM      1  C1  <0> d          -0.013   1.076   0.008  0.00  0.00     0.044 A 
ATOM      2  C2  <0> d           1.060   1.881   0.002  0.00  0.00     0.180 A 
ATOM      3  O1  <0> d           0.607   3.153   0.013  0.00  0.00    -0.272 OA
ATOM      4  C3  <0> d          -0.735   3.110   0.026  0.00  0.00     0.244 A 
ATOM      5  N1  <0> d          -1.112   1.855   0.017  0.00  0.00    -0.218 NA
ATOM      6  H1  <0> d           0.002  -0.004   0.002  0.00  0.00     0.119 H 
ENDROOT
BRANCH   2   7
ATOM      7  C4  <0> d           2.503   1.446  -0.015  0.00  0.00     0.441 C 
ATOM      8  F1  <0> d           2.937   1.319  -1.339  0.00  0.00    -0.164 F 
ATOM      9  F2  <0> d           3.285   2.402   0.643  0.00  0.00    -0.164 F 
ATOM     10  F3  <0> d           2.627   0.214   0.637  0.00  0.00    -0.164 F 
ENDBRANCH   2   7
BRANCH   4  11
ATOM     11  N2  <0> d          -1.577   4.205   0.040  0.00  0.00    -0.363 N 
ATOM     12  H2  <0> d          -2.667   4.060   0.049  0.00  0.00     0.159 HD
ATOM     13  H3  <0> d          -1.157   5.222   0.041  0.00  0.00     0.159 HD
ENDBRANCH   4  11
TORSDOF 2
