REMARK  1 active torsions:
REMARK  status: ('A' for Active; 'I' for Inactive)
REMARK    1  A    between atoms: C1_1  and  C2_2 
ROOT
ATOM      1  C2  <0> d           0.002  -0.004   0.002  0.00  0.00    -0.061 A 
ATOM      2  C3  <0> d           0.005  -0.678  -1.219  0.00  0.00    -0.075 A 
ATOM      3  C4  <0> d           0.024  -2.034  -1.289  0.00  0.00    -0.052 A 
ATOM      4  C5  <0> d           0.040  -2.791  -0.100  0.00  0.00     0.090 A 
ATOM      5  C6  <0> d           0.036  -2.075   1.185  0.00  0.00     0.034 A 
ATOM      6  C7  <0> d           0.022  -0.674   1.186  0.00  0.00    -0.062 A 
ATOM      7  C8  <0> d           0.054  -3.090   2.150  0.00  0.00     0.142 A 
ATOM      8  N1  <0> d           0.067  -4.267   1.466  0.00  0.00    -0.267 N 
ATOM      9  H1  <0> d           0.081  -5.141   1.887  0.00  0.00     0.190 HD
ATOM     10  N2  <0> d           0.058  -4.079   0.196  0.00  0.00    -0.173 NA
ATOM     11  C9  <0> d           0.059  -2.923   3.572  0.00  0.00     0.120 C 
ATOM     12  N3  <0> d           0.063  -2.791   4.701  0.00  0.00    -0.190 NA
ATOM     13  H5  <0> d          -0.007  -0.106  -2.135  0.00  0.00     0.084 H 
ATOM     14  H6  <0> d           0.025  -2.529  -2.249  0.00  0.00     0.087 H 
ATOM     15  H7  <0> d           0.024  -0.131   2.119  0.00  0.00     0.085 H 
ENDROOT
BRANCH   1  16
ATOM     16  C1  <0> d          -0.018   1.503   0.010  0.00  0.00    -0.051 C 
ATOM     17  H2  <0> d           1.004   1.880   0.003  0.00  0.00     0.033 H 
ATOM     18  H3  <0> d          -0.545   1.864  -0.873  0.00  0.00     0.033 H 
ATOM     19  H4  <0> d          -0.529   1.854   0.907  0.00  0.00     0.033 H 
ENDBRANCH   1  16
TORSDOF 1
