REMARK  3 active torsions:
REMARK  status: ('A' for Active; 'I' for Inactive)
REMARK    1  A    between atoms: C1_1  and  C2_2 
REMARK    2  A    between atoms: C2_2  and  C3_3 
REMARK    3  A    between atoms: C4_4  and  C7_9 
ROOT
ATOM      1  C3  <0> d           0.707  -0.490  -1.238  0.00  0.00     0.014 A 
ATOM      2  C4  <0> d           2.039  -0.650  -1.379  0.00  0.00    -0.038 A 
ATOM      3  C5  <0> d           2.272  -1.120  -2.686  0.00  0.00    -0.061 A 
ATOM      4  C6  <0> d           1.073  -1.229  -3.295  0.00  0.00    -0.022 A 
ATOM      5  N1  <0> d           0.109  -0.849  -2.409  0.00  0.00    -0.369 N 
ATOM      6  H1  <0> d          -0.845  -0.835  -2.584  0.00  0.00     0.165 HD
ATOM      7  H7  <0> d           3.233  -1.350  -3.121  0.00  0.00     0.086 H 
ATOM      8  H8  <0> d           0.906  -1.563  -4.308  0.00  0.00     0.111 H 
ENDROOT
BRANCH   1   9
ATOM      9  C2  <0> d           0.002  -0.004   0.002  0.00  0.00    -0.030 C 
ATOM     10  H5  <0> d           0.529  -0.365   0.885  0.00  0.00     0.041 H 
ATOM     11  H6  <0> d          -1.020  -0.381   0.010  0.00  0.00     0.041 H 
BRANCH   9  12
ATOM     12  C1  <0> d          -0.019   1.526   0.010  0.00  0.00    -0.071 C 
ATOM     13  H2  <0> d           1.004   1.903   0.003  0.00  0.00     0.028 H 
ATOM     14  H3  <0> d          -0.546   1.887  -0.873  0.00  0.00     0.028 H 
ATOM     15  H4  <0> d          -0.529   1.877   0.907  0.00  0.00     0.028 H 
ENDBRANCH   9  12
ENDBRANCH   1   9
BRANCH   2  16
ATOM     16  C7  <0> d           3.086  -0.376  -0.330  0.00  0.00    -0.049 C 
ATOM     17  H9  <0> d           3.257  -1.279   0.257  0.00  0.00     0.033 H 
ATOM     18  H10 <0> d           4.015  -0.076  -0.814  0.00  0.00     0.033 H 
ATOM     19  H11 <0> d           2.743   0.424   0.326  0.00  0.00     0.033 H 
ENDBRANCH   2  16
TORSDOF 3
