REMARK  3 active torsions:
REMARK  status: ('A' for Active; 'I' for Inactive)
REMARK    1  A    between atoms: C1_1  and  C2_2 
REMARK    2  A    between atoms: C7_7  and  N1_8 
REMARK       I    between atoms: N1_8  and  C8_9 
REMARK    3  A    between atoms: C8_9  and  O2_11 
ROOT
ATOM      1  C2  <0> d          -3.596   1.746  -0.164  0.00  0.00    -0.035 A 
ATOM      2  C3  <0> d          -4.753   0.997  -0.254  0.00  0.00    -0.075 A 
ATOM      3  C4  <0> d          -4.684  -0.384  -0.254  0.00  0.00    -0.082 A 
ATOM      4  C5  <0> d          -3.459  -1.019  -0.165  0.00  0.00    -0.081 A 
ATOM      5  C6  <0> d          -2.299  -0.275  -0.080  0.00  0.00    -0.057 A 
ATOM      6  C7  <0> d          -2.364   1.112  -0.074  0.00  0.00     0.043 A 
ATOM      7  H4  <0> d          -5.711   1.490  -0.325  0.00  0.00     0.084 H 
ATOM      8  H5  <0> d          -5.590  -0.969  -0.325  0.00  0.00     0.083 H 
ATOM      9  H6  <0> d          -3.409  -2.098  -0.166  0.00  0.00     0.083 H 
ATOM     10  H7  <0> d          -1.342  -0.772  -0.014  0.00  0.00     0.086 H 
ENDROOT
BRANCH   6  11
ATOM     11  N1  <0> d          -1.191   1.869   0.018  0.00  0.00    -0.303 N 
ATOM     12  C8  <0> d          -0.089   1.338   0.585  0.00  0.00     0.254 C 
ATOM     13  O1  <0> d          -0.143   0.243   1.108  0.00  0.00    -0.632 OA
ATOM     14  H8  <0> d          -1.170   2.775  -0.327  0.00  0.00     0.172 HD
BRANCH  12  15
ATOM     15  O2  <0> d           1.072   2.020   0.567  0.00  0.00    -0.760 OA
ATOM     16  H9  <0> d           1.836   1.597   0.983  0.00  0.00     0.169 HD
ENDBRANCH  12  15
ENDBRANCH   6  11
BRANCH   1  17
ATOM     17  C1  <0> d          -3.671   3.252  -0.165  0.00  0.00    -0.049 C 
ATOM     18  H1  <0> d          -3.612   3.618  -1.190  0.00  0.00     0.033 H 
ATOM     19  H2  <0> d          -4.614   3.569   0.281  0.00  0.00     0.033 H 
ATOM     20  H3  <0> d          -2.841   3.657   0.414  0.00  0.00     0.033 H 
ENDBRANCH   1  17
TORSDOF 3
