REMARK  5 active torsions:
REMARK  status: ('A' for Active; 'I' for Inactive)
REMARK    1  A    between atoms: C1_1  and  C2_2 
REMARK    2  A    between atoms: N1_8  and  C5_9 
REMARK    3  A    between atoms: C5_9  and  C6_10 
REMARK    4  A    between atoms: C6_10  and  C7_12 
REMARK    5  A    between atoms: C6_10  and  O3_13 
ROOT
ATOM      1  C2  <0> d           2.272   1.615   2.466  0.00  0.00     0.034 A 
ATOM      2  H1  <0> d           1.288   1.690   2.929  0.00  0.00     0.075 H 
ATOM      3  C3  <0> d           3.153   0.608   3.231  0.00  0.00     0.049 A 
ATOM      4  O1  <0> d           3.454  -0.419   2.242  0.00  0.00    -0.302 OA
ATOM      5  C4  <0> d           2.865  -0.108   1.082  0.00  0.00     0.363 A 
ATOM      6  O2  <0> d           2.954  -0.799   0.087  0.00  0.00    -0.238 OA
ATOM      7  N1  <0> d           2.166   1.035   1.118  0.00  0.00    -0.319 N 
ATOM      8  H6  <0> d           2.607   0.180   4.072  0.00  0.00     0.078 H 
ATOM      9  H7  <0> d           4.069   1.088   3.575  0.00  0.00     0.078 H 
ENDROOT
BRANCH   7  10
ATOM     10  C5  <0> d           1.423   1.615  -0.003  0.00  0.00     0.024 C 
ATOM     11  H8  <0> d           1.905   1.339  -0.940  0.00  0.00     0.068 H 
ATOM     12  H9  <0> d           1.410   2.701   0.093  0.00  0.00     0.068 H 
BRANCH  10  13
ATOM     13  C6  <0> d          -0.013   1.086   0.008  0.00  0.00     0.047 C 
ATOM     14  H2  <0> d           0.002  -0.004   0.002  0.00  0.00     0.084 H 
BRANCH  13  15
ATOM     15  C7  <0> d          -0.753   1.593  -1.232  0.00  0.00    -0.051 C 
ATOM     16  H10 <0> d          -0.767   2.683  -1.226  0.00  0.00     0.030 H 
ATOM     17  H11 <0> d          -0.242   1.241  -2.128  0.00  0.00     0.030 H 
ATOM     18  H12 <0> d          -1.775   1.215  -1.224  0.00  0.00     0.030 H 
ENDBRANCH  13  15
BRANCH  13  19
ATOM     19  O3  <0> d          -0.682   1.547   1.184  0.00  0.00    -0.394 OA
ATOM     20  H13 <0> d          -1.599   1.248   1.257  0.00  0.00     0.210 HD
ENDBRANCH  13  19
ENDBRANCH  10  13
ENDBRANCH   7  10
BRANCH   1  21
ATOM     21  C1  <0> d           2.946   2.987   2.409  0.00  0.00    -0.055 C 
ATOM     22  H3  <0> d           2.356   3.656   1.782  0.00  0.00     0.030 H 
ATOM     23  H4  <0> d           3.015   3.401   3.415  0.00  0.00     0.030 H 
ATOM     24  H5  <0> d           3.946   2.884   1.989  0.00  0.00     0.030 H 
ENDBRANCH   1  21
TORSDOF 5
