REMARK  1 active torsions:
REMARK  status: ('A' for Active; 'I' for Inactive)
REMARK    1  A    between atoms: C6_6  and  O1_7 
ROOT
ATOM      1  C1  <0> d          -0.017   1.383   0.010  0.00  0.00    -0.051 A 
ATOM      2  C2  <0> d           1.171   2.083   0.002  0.00  0.00    -0.074 A 
ATOM      3  C3  <0> d           2.388   1.411  -0.011  0.00  0.00    -0.052 A 
ATOM      4  C4  <0> d           2.409   0.034  -0.014  0.00  0.00    -0.049 A 
ATOM      5  C5  <0> d           1.215  -0.673  -0.010  0.00  0.00    -0.044 A 
ATOM      6  C6  <0> d           0.002  -0.004   0.002  0.00  0.00     0.066 A 
ATOM      7  C7  <0> d           3.691  -0.757  -0.011  0.00  0.00    -0.040 C 
ATOM      8  C8  <0> d           4.864   0.120  -0.445  0.00  0.00    -0.061 C 
ATOM      9  C9  <0> d           4.848   1.401   0.398  0.00  0.00    -0.061 C 
ATOM     10  C10 <0> d           3.645   2.241  -0.026  0.00  0.00    -0.040 C 
ATOM     11  H1  <0> d          -0.958   1.913   0.026  0.00  0.00     0.087 H 
ATOM     12  H2  <0> d           1.156   3.162   0.006  0.00  0.00     0.084 H 
ATOM     13  H3  <0> d           1.231  -1.753  -0.017  0.00  0.00     0.088 H 
ATOM     14  H5  <0> d           3.878  -1.136   0.993  0.00  0.00     0.040 H 
ATOM     15  H6  <0> d           3.596  -1.597  -0.700  0.00  0.00     0.040 H 
ATOM     16  H7  <0> d           5.801  -0.414  -0.283  0.00  0.00     0.033 H 
ATOM     17  H8  <0> d           4.763   0.373  -1.500  0.00  0.00     0.033 H 
ATOM     18  H9  <0> d           4.763   1.145   1.454  0.00  0.00     0.033 H 
ATOM     19  H10 <0> d           5.766   1.963   0.228  0.00  0.00     0.033 H 
ATOM     20  H11 <0> d           3.811   2.624  -1.033  0.00  0.00     0.040 H 
ATOM     21  H12 <0> d           3.531   3.079   0.662  0.00  0.00     0.040 H 
ENDROOT
BRANCH   6  22
ATOM     22  O1  <0> d          -1.163  -0.703   0.006  0.00  0.00    -0.361 OA
ATOM     23  H4  <0> d          -1.507  -0.900  -0.876  0.00  0.00     0.217 HD
ENDBRANCH   6  22
TORSDOF 1
