REMARK  0 active torsions:
REMARK  status: ('A' for Active; 'I' for Inactive)
ROOT
ATOM      1  C1  <0> d           0.646  -2.631  -0.019  0.00  0.00     0.017 A 
ATOM      2  C2  <0> d           1.636  -1.713  -0.023  0.00  0.00     0.004 A 
ATOM      3  N1  <0> d           1.325  -0.383  -0.013  0.00  0.00    -0.295 N 
ATOM      4  C3  <0> d           2.041   0.759  -0.013  0.00  0.00     0.093 A 
ATOM      5  N2  <0> d           1.194   1.759   0.000  0.00  0.00    -0.143 NA
ATOM      6  N3  <0> d          -0.016   1.316   0.009  0.00  0.00    -0.129 NA
ATOM      7  C4  <0> d           0.002  -0.004   0.002  0.00  0.00     0.174 A 
ATOM      8  C5  <0> d          -0.991  -1.002   0.006  0.00  0.00     0.048 A 
ATOM      9  N4  <0> d          -0.639  -2.266  -0.005  0.00  0.00    -0.268 NA
ATOM     10  H1  <0> d           0.897  -3.681  -0.028  0.00  0.00     0.116 H 
ATOM     11  H2  <0> d           2.669  -2.030  -0.035  0.00  0.00     0.114 H 
ATOM     12  H3  <0> d           3.118   0.837  -0.023  0.00  0.00     0.147 H 
ATOM     13  H4  <0> d          -2.036  -0.730   0.018  0.00  0.00     0.120 H 
ENDROOT
TORSDOF 0
