REMARK  3 active torsions:
REMARK  status: ('A' for Active; 'I' for Inactive)
REMARK    1  A    between atoms: C1_1  and  C2_2 
REMARK    2  A    between atoms: C2_2  and  O1_3 
REMARK    3  A    between atoms: O1_3  and  C3_4 
ROOT
ATOM      1  C3  <0> d           2.397   0.007  -0.021  0.00  0.00     0.072 A 
ATOM      2  C4  <0> d           1.197  -0.699  -0.013  0.00  0.00    -0.034 A 
ATOM      3  C5  <0> d           0.002  -0.004   0.002  0.00  0.00     0.006 A 
ATOM      4  N1  <0> d          -0.016   1.313   0.009  0.00  0.00    -0.250 NA
ATOM      5  C6  <0> d           1.104   2.027   0.002  0.00  0.00     0.139 A 
ATOM      6  C7  <0> d           2.346   1.397  -0.013  0.00  0.00    -0.013 A 
ATOM      7  C8  <0> d           1.034   3.458   0.011  0.00  0.00     0.119 C 
ATOM      8  N2  <0> d           0.978   4.592   0.017  0.00  0.00    -0.190 NA
ATOM      9  H6  <0> d           1.199  -1.779  -0.019  0.00  0.00     0.089 H 
ATOM     10  H7  <0> d          -0.930  -0.549   0.008  0.00  0.00     0.114 H 
ATOM     11  H8  <0> d           3.256   1.979  -0.019  0.00  0.00     0.092 H 
ENDROOT
BRANCH   1  12
ATOM     12  O1  <0> d           3.587  -0.645  -0.036  0.00  0.00    -0.351 OA
BRANCH  12  13
ATOM     13  C2  <0> d           3.545  -2.073  -0.044  0.00  0.00     0.023 C 
ATOM     14  H4  <0> d           3.029  -2.426   0.849  0.00  0.00     0.074 H 
ATOM     15  H5  <0> d           3.011  -2.416  -0.931  0.00  0.00     0.074 H 
BRANCH  13  16
ATOM     16  C1  <0> d           4.971  -2.626  -0.061  0.00  0.00    -0.056 C 
ATOM     17  H1  <0> d           4.938  -3.716  -0.067  0.00  0.00     0.030 H 
ATOM     18  H2  <0> d           5.487  -2.273  -0.954  0.00  0.00     0.030 H 
ATOM     19  H3  <0> d           5.504  -2.284   0.826  0.00  0.00     0.030 H 
ENDBRANCH  13  16
ENDBRANCH  12  13
ENDBRANCH   1  12
TORSDOF 3
