REMARK  0 active torsions:
REMARK  status: ('A' for Active; 'I' for Inactive)
ROOT
ATOM      1  C1  <0> d           1.414   2.037  -0.001  0.00  0.00    -0.036 C 
ATOM      2  C2  <0> d          -0.018   1.470   0.010  0.00  0.00     0.003 C 
ATOM      3  N1  <0> d           0.002  -0.004   0.002  0.00  0.00    -0.319 N 
ATOM      4  S1  <0> d           1.408  -0.440  -0.800  0.00  0.00     0.226 S 
ATOM      5  O1  <0> d           2.166  -1.187   0.141  0.00  0.00    -0.206 OA
ATOM      6  O2  <0> d           0.982  -1.017  -2.027  0.00  0.00    -0.206 OA
ATOM      7  C3  <0> d           2.168   1.211  -1.086  0.00  0.00     0.048 C 
ATOM      8  H1  <0> d           1.401   3.093  -0.270  0.00  0.00     0.036 H 
ATOM      9  H2  <0> d           1.883   1.900   0.974  0.00  0.00     0.036 H 
ATOM     10  H3  <0> d          -0.551   1.826  -0.871  0.00  0.00     0.065 H 
ATOM     11  H4  <0> d          -0.535   1.817   0.905  0.00  0.00     0.065 H 
ATOM     12  H5  <0> d          -0.662  -0.600   0.383  0.00  0.00     0.172 HD
ATOM     13  H6  <0> d           3.241   1.192  -0.896  0.00  0.00     0.059 H 
ATOM     14  H7  <0> d           1.951   1.580  -2.088  0.00  0.00     0.059 H 
ENDROOT
TORSDOF 0
