REMARK  2 active torsions:
REMARK  status: ('A' for Active; 'I' for Inactive)
REMARK    1  A    between atoms: C1_1  and  C2_2 
REMARK    2  A    between atoms: C4_5  and  C6_11 
ROOT
ATOM      1  C2  <0> d           2.174   1.368   1.185  0.00  0.00     0.012 C 
ATOM      2  H1  <0> d           1.722   1.680   2.139  0.00  0.00     0.072 H 
ATOM      3  C3  <0> d           1.423   1.982  -0.001  0.00  0.00    -0.028 C 
ATOM      4  C4  <0> d          -0.018   1.460   0.010  0.00  0.00     0.012 C 
ATOM      5  H2  <0> d          -0.542   1.774   0.924  0.00  0.00     0.072 H 
ATOM      6  N1  <0> d           0.002  -0.004   0.002  0.00  0.00    -0.339 N 
ATOM      7  C5  <0> d           1.018  -0.691   0.545  0.00  0.00     0.316 C 
ATOM      8  O1  <0> d           0.980  -1.906   0.522  0.00  0.00    -0.247 OA
ATOM      9  N2  <0> d           2.074  -0.091   1.114  0.00  0.00    -0.339 N 
ATOM     10  H6  <0> d           1.425   3.078   0.092  0.00  0.00     0.039 H 
ATOM     11  H7  <0> d           1.919   1.692  -0.939  0.00  0.00     0.039 H 
ATOM     12  H8  <0> d          -0.827  -0.563  -0.456  0.00  0.00     0.164 HD
ATOM     13  H9  <0> d           2.876  -0.718   1.531  0.00  0.00     0.164 HD
ENDROOT
BRANCH   1  14
ATOM     14  C1  <0> d           3.645   1.784   1.131  0.00  0.00    -0.057 C 
ATOM     15  H3  <0> d           3.719   2.880   1.185  0.00  0.00     0.030 H 
ATOM     16  H4  <0> d           4.091   1.432   0.189  0.00  0.00     0.030 H 
ATOM     17  H5  <0> d           4.183   1.338   1.981  0.00  0.00     0.030 H 
ENDBRANCH   1  14
BRANCH   4  18
ATOM     18  C6  <0> d          -0.755   1.968  -1.230  0.00  0.00    -0.057 C 
ATOM     19  H10 <0> d          -1.789   1.592  -1.222  0.00  0.00     0.030 H 
ATOM     20  H11 <0> d          -0.242   1.609  -2.135  0.00  0.00     0.030 H 
ATOM     21  H12 <0> d          -0.765   3.068  -1.226  0.00  0.00     0.030 H 
ENDBRANCH   4  18
TORSDOF 2
