REMARK  4 active torsions:
REMARK  status: ('A' for Active; 'I' for Inactive)
REMARK    1  A    between atoms: C1_1  and  C2_2 
REMARK    2  A    between atoms: C2_2  and  C3_3 
REMARK    3  A    between atoms: C2_2  and  C4_4 
REMARK    4  A    between atoms: N3_10  and  N4_11 
ROOT
ATOM      1  C4  <0> d          -0.718   1.572   1.248  0.00  0.00     0.153 A 
ATOM      2  N1  <0> d          -0.411   2.633   1.922  0.00  0.00    -0.155 NA
ATOM      3  N2  <0> d          -1.302   2.739   2.998  0.00  0.00    -0.225 N 
ATOM      4  H1  <0> d          -1.220   3.583   3.699  0.00  0.00     0.194 HD
ATOM      5  C5  <0> d          -2.142   1.685   2.930  0.00  0.00     0.363 A 
ATOM      6  O1  <0> d          -3.052   1.436   3.701  0.00  0.00    -0.243 OA
ATOM      7  N3  <0> d          -1.788   0.958   1.851  0.00  0.00    -0.194 N 
ENDROOT
BRANCH   1   8
ATOM      8  C2  <0> d          -0.013   1.086   0.008  0.00  0.00     0.000 C 
ATOM      9  H5  <0> d          -0.005  -0.014   0.015  0.00  0.00     0.051 H 
BRANCH   8  10
ATOM     10  C1  <0> d           1.423   1.615  -0.003  0.00  0.00    -0.066 C 
ATOM     11  H2  <0> d           1.955   1.251   0.888  0.00  0.00     0.028 H 
ATOM     12  H3  <0> d           1.408   2.715   0.003  0.00  0.00     0.028 H 
ATOM     13  H4  <0> d           1.938   1.261  -0.908  0.00  0.00     0.028 H 
ENDBRANCH   8  10
BRANCH   8  14
ATOM     14  C3  <0> d          -0.753   1.593  -1.232  0.00  0.00    -0.066 C 
ATOM     15  H6  <0> d          -1.785   1.212  -1.224  0.00  0.00     0.028 H 
ATOM     16  H7  <0> d          -0.238   1.238  -2.136  0.00  0.00     0.028 H 
ATOM     17  H8  <0> d          -0.768   2.693  -1.225  0.00  0.00     0.028 H 
ENDBRANCH   8  14
ENDBRANCH   1   8
BRANCH   7  18
ATOM     18  N4  <0> d          -2.392  -0.193   1.430  0.00  0.00    -0.333 N 
ATOM     19  H9  <0> d          -3.247  -0.602   1.989  0.00  0.00     0.177 HD
ATOM     20  H10 <0> d          -2.023  -0.711   0.532  0.00  0.00     0.177 HD
ENDBRANCH   7  18
TORSDOF 4
