REMARK  5 active torsions:
REMARK  status: ('A' for Active; 'I' for Inactive)
REMARK    1  A    between atoms: C1_1  and  C2_2 
REMARK    2  A    between atoms: C6_6  and  O1_8 
REMARK    3  A    between atoms: O1_8  and  C8_9 
REMARK    4  A    between atoms: C8_9  and  C9_10 
REMARK    5  A    between atoms: C9_10  and  O2_11 
ROOT
ATOM      1  C2  <0> d          -2.923  -3.768  -0.250  0.00  0.00    -0.059 A 
ATOM      2  C3  <0> d          -1.818  -4.595  -0.170  0.00  0.00    -0.077 A 
ATOM      3  C4  <0> d          -0.551  -4.051  -0.068  0.00  0.00    -0.080 A 
ATOM      4  C5  <0> d          -0.386  -2.679  -0.051  0.00  0.00    -0.051 A 
ATOM      5  C6  <0> d          -1.494  -1.847  -0.127  0.00  0.00     0.069 A 
ATOM      6  C7  <0> d          -2.764  -2.396  -0.229  0.00  0.00    -0.045 A 
ATOM      7  H4  <0> d          -1.944  -5.667  -0.187  0.00  0.00     0.084 H 
ATOM      8  H5  <0> d           0.311  -4.699  -0.005  0.00  0.00     0.083 H 
ATOM      9  H6  <0> d           0.604  -2.255   0.024  0.00  0.00     0.087 H 
ATOM     10  H7  <0> d          -3.628  -1.750  -0.292  0.00  0.00     0.088 H 
ENDROOT
BRANCH   5  11
ATOM     11  O1  <0> d          -1.335  -0.498  -0.105  0.00  0.00    -0.349 OA
BRANCH  11  12
ATOM     12  C8  <0> d           0.002  -0.004   0.002  0.00  0.00     0.045 C 
ATOM     13  H8  <0> d           0.588  -0.355  -0.847  0.00  0.00     0.078 H 
ATOM     14  H9  <0> d           0.450  -0.366   0.927  0.00  0.00     0.078 H 
BRANCH  12  15
ATOM     15  C9  <0> d          -0.019   1.526   0.010  0.00  0.00     0.037 C 
ATOM     16  H10 <0> d           1.004   1.903   0.003  0.00  0.00     0.077 H 
ATOM     17  H11 <0> d          -0.546   1.887  -0.873  0.00  0.00     0.077 H 
BRANCH  15  18
ATOM     18  O2  <0> d          -0.688   1.987   1.186  0.00  0.00    -0.399 OA
ATOM     19  H12 <0> d          -0.738   2.950   1.258  0.00  0.00     0.209 HD
ENDBRANCH  15  18
ENDBRANCH  12  15
ENDBRANCH  11  12
ENDBRANCH   5  11
BRANCH   1  20
ATOM     20  C1  <0> d          -4.303  -4.364  -0.362  0.00  0.00    -0.051 C 
ATOM     21  H1  <0> d          -4.556  -4.501  -1.413  0.00  0.00     0.033 H 
ATOM     22  H2  <0> d          -4.324  -5.328   0.146  0.00  0.00     0.033 H 
ATOM     23  H3  <0> d          -5.027  -3.694   0.102  0.00  0.00     0.033 H 
ENDBRANCH   1  20
TORSDOF 5
