REMARK  3 active torsions:
REMARK  status: ('A' for Active; 'I' for Inactive)
REMARK    1  A    between atoms: C1_1  and  C2_2 
REMARK    2  A    between atoms: C4_6  and  C5_8 
REMARK    3  A    between atoms: C4_6  and  C6_9 
ROOT
ATOM      1  C2  <0> d          -0.013   1.086   0.008  0.00  0.00     0.059 C 
ATOM      2  H1  <0> d           0.002  -0.004   0.002  0.00  0.00     0.086 H 
ATOM      3  C3  <0> d          -0.837   1.636  -1.183  0.00  0.00     0.047 C 
ATOM      4  O1  <0> d          -2.195   1.562  -0.701  0.00  0.00    -0.353 OA
ATOM      5  C4  <0> d          -2.137   1.522   0.731  0.00  0.00     0.157 C 
ATOM      6  O2  <0> d          -0.761   1.588   1.141  0.00  0.00    -0.349 OA
ATOM      7  H5  <0> d          -0.560   2.668  -1.399  0.00  0.00     0.078 H 
ATOM      8  H6  <0> d          -0.705   1.009  -2.065  0.00  0.00     0.078 H 
ENDROOT
BRANCH   5   9
ATOM      9  C5  <0> d          -2.763   0.221   1.235  0.00  0.00    -0.026 C 
ATOM     10  H7  <0> d          -2.708   0.189   2.323  0.00  0.00     0.035 H 
ATOM     11  H8  <0> d          -3.806   0.174   0.922  0.00  0.00     0.035 H 
ATOM     12  H9  <0> d          -2.220  -0.628   0.819  0.00  0.00     0.035 H 
ENDBRANCH   5   9
BRANCH   5  13
ATOM     13  C6  <0> d          -2.903   2.715   1.308  0.00  0.00    -0.026 C 
ATOM     14  H10 <0> d          -2.461   3.642   0.944  0.00  0.00     0.035 H 
ATOM     15  H11 <0> d          -3.946   2.662   0.996  0.00  0.00     0.035 H 
ATOM     16  H12 <0> d          -2.848   2.689   2.397  0.00  0.00     0.035 H 
ENDBRANCH   5  13
BRANCH   1  17
ATOM     17  C1  <0> d           1.409   1.650  -0.003  0.00  0.00    -0.050 C 
ATOM     18  H2  <0> d           1.949   1.292   0.874  0.00  0.00     0.031 H 
ATOM     19  H3  <0> d           1.924   1.321  -0.905  0.00  0.00     0.031 H 
ATOM     20  H4  <0> d           1.368   2.739   0.016  0.00  0.00     0.031 H 
ENDBRANCH   1  17
TORSDOF 3
