REMARK  2 active torsions:
REMARK  status: ('A' for Active; 'I' for Inactive)
REMARK    1  A    between atoms: C1_1  and  C2_2 
REMARK    2  A    between atoms: C6_6  and  N1_9 
ROOT
ATOM      1  C2  <0> d          -3.634   1.619   0.028  0.00  0.00    -0.021 A 
ATOM      2  C3  <0> d          -3.650   3.002   0.035  0.00  0.00    -0.071 A 
ATOM      3  C4  <0> d          -2.463   3.711   0.034  0.00  0.00    -0.043 A 
ATOM      4  C5  <0> d          -1.254   3.039   0.030  0.00  0.00     0.145 A 
ATOM      5  C6  <0> d          -1.233   1.649   0.017  0.00  0.00     0.104 A 
ATOM      6  C7  <0> d          -2.429   0.940   0.019  0.00  0.00     0.151 A 
ATOM      7  F1  <0> d          -2.413  -0.411   0.012  0.00  0.00    -0.203 F 
ATOM      8  F2  <0> d          -0.095   3.733   0.035  0.00  0.00    -0.204 F 
ATOM      9  H4  <0> d          -4.593   3.529   0.042  0.00  0.00     0.084 H 
ATOM     10  H5  <0> d          -2.481   4.790   0.040  0.00  0.00     0.088 H 
ENDROOT
BRANCH   1  11
ATOM     11  C1  <0> d          -4.930   0.850   0.030  0.00  0.00    -0.048 C 
ATOM     12  H1  <0> d          -5.238   0.660   1.058  0.00  0.00     0.033 H 
ATOM     13  H2  <0> d          -5.699   1.433  -0.477  0.00  0.00     0.033 H 
ATOM     14  H3  <0> d          -4.791  -0.098  -0.490  0.00  0.00     0.033 H 
ENDBRANCH   1  11
BRANCH   5  15
ATOM     15  N1  <0> d          -0.011   0.966   0.007  0.00  0.00    -0.394 N 
ATOM     16  H6  <0> d           0.002  -0.004   0.002  0.00  0.00     0.156 HD
ATOM     17  H7  <0> d           0.822   1.462   0.002  0.00  0.00     0.156 HD
ENDBRANCH   5  15
TORSDOF 2
