REMARK  2 active torsions:
REMARK  status: ('A' for Active; 'I' for Inactive)
REMARK    1  A    between atoms: C1_1  and  C2_2 
REMARK    2  A    between atoms: C4_7  and  O1_8 
ROOT
ATOM      1  C2  <0> d           0.002  -0.004   0.002  0.00  0.00     0.009 A 
ATOM      2  C3  <0> d           0.008  -0.794  -1.096  0.00  0.00     0.006 A 
ATOM      3  N1  <0> d           0.028  -2.078  -0.681  0.00  0.00    -0.286 N 
ATOM      4  N2  <0> d           0.034  -2.081   0.720  0.00  0.00    -0.149 NA
ATOM      5  C4  <0> d           0.024  -0.836   1.131  0.00  0.00     0.188 A 
ATOM      6  H5  <0> d          -0.001  -0.458  -2.122  0.00  0.00     0.114 H 
ATOM      7  H6  <0> d           0.036  -2.862  -1.252  0.00  0.00     0.188 HD
ENDROOT
BRANCH   1   8
ATOM      8  C1  <0> d          -0.018   1.503   0.010  0.00  0.00    -0.046 C 
ATOM      9  H2  <0> d           1.004   1.880   0.003  0.00  0.00     0.033 H 
ATOM     10  H3  <0> d          -0.545   1.864  -0.873  0.00  0.00     0.033 H 
ATOM     11  H4  <0> d          -0.529   1.854   0.907  0.00  0.00     0.033 H 
ENDBRANCH   1   8
BRANCH   5  12
ATOM     12  O1  <0> d           0.031  -0.423   2.427  0.00  0.00    -0.343 OA
ATOM     13  H1  <0> d          -0.850  -0.316   2.811  0.00  0.00     0.219 HD
ENDBRANCH   5  12
TORSDOF 2
