REMARK  2 active torsions:
REMARK  status: ('A' for Active; 'I' for Inactive)
REMARK    1  A    between atoms: C1_1  and  C2_2 
REMARK    2  A    between atoms: C4_4  and  C7_9 
ROOT
ATOM      1  C2  <0> d           0.002  -0.004   0.002  0.00  0.00    -0.053 A 
ATOM      2  C3  <0> d          -1.203  -0.735   0.004  0.00  0.00    -0.037 A 
ATOM      3  C4  <0> d          -1.170  -2.095  -0.004  0.00  0.00     0.156 A 
ATOM      4  O1  <0> d           0.003  -2.757  -0.014  0.00  0.00    -0.268 OA
ATOM      5  C5  <0> d           1.171  -2.094  -0.016  0.00  0.00     0.288 A 
ATOM      6  O2  <0> d           2.220  -2.712  -0.025  0.00  0.00    -0.260 OA
ATOM      7  C6  <0> d           1.183  -0.678  -0.013  0.00  0.00    -0.004 A 
ATOM      8  H4  <0> d          -2.150  -0.217   0.012  0.00  0.00     0.088 H 
ATOM      9  H5  <0> d           2.120  -0.139  -0.019  0.00  0.00     0.093 H 
ENDROOT
BRANCH   1  10
ATOM     10  C1  <0> d          -0.018   1.503   0.010  0.00  0.00    -0.051 C 
ATOM     11  H1  <0> d           1.004   1.880   0.003  0.00  0.00     0.033 H 
ATOM     12  H2  <0> d          -0.545   1.864  -0.873  0.00  0.00     0.033 H 
ATOM     13  H3  <0> d          -0.529   1.854   0.907  0.00  0.00     0.033 H 
ENDBRANCH   1  10
BRANCH   3  14
ATOM     14  C7  <0> d          -2.435  -2.854  -0.002  0.00  0.00     0.234 C 
ATOM     15  O3  <0> d          -3.504  -2.260   0.007  0.00  0.00    -0.642 OA
ATOM     16  O4  <0> d          -2.414  -4.077  -0.009  0.00  0.00    -0.642 OA
ENDBRANCH   3  14
TORSDOF 2
