REMARK  4 active torsions:
REMARK  status: ('A' for Active; 'I' for Inactive)
REMARK    1  A    between atoms: C1_1  and  C2_2 
REMARK    2  A    between atoms: C4_5  and  C7_10 
REMARK    3  A    between atoms: C4_5  and  C8_11 
REMARK    4  A    between atoms: C5_7  and  C6_9 
ROOT
ATOM      1  C2  <0> d           0.002  -0.004   0.002  0.00  0.00     0.045 C 
ATOM      2  H1  <0> d           0.500  -0.361  -0.900  0.00  0.00     0.083 H 
ATOM      3  C3  <0> d          -1.435  -0.543   0.052  0.00  0.00    -0.016 C 
ATOM      4  C4  <0> d          -1.369  -2.074   0.035  0.00  0.00     0.051 C 
ATOM      5  N1  <0> d          -0.368  -2.535   0.993  0.00  0.00    -0.261 NA
ATOM      6  C5  <0> d           0.549  -1.784   1.471  0.00  0.00     0.132 C 
ATOM      7  O1  <0> d           0.693  -0.485   1.159  0.00  0.00    -0.333 OA
ATOM      8  H5  <0> d          -1.923  -0.206   0.966  0.00  0.00     0.040 H 
ATOM      9  H6  <0> d          -1.992  -0.189  -0.816  0.00  0.00     0.040 H 
ENDROOT
BRANCH   4  10
ATOM     10  C7  <0> d          -0.989  -2.552  -1.368  0.00  0.00    -0.051 C 
ATOM     11  H10 <0> d          -0.946  -3.641  -1.382  0.00  0.00     0.030 H 
ATOM     12  H11 <0> d          -1.736  -2.208  -2.084  0.00  0.00     0.030 H 
ATOM     13  H12 <0> d          -0.013  -2.147  -1.638  0.00  0.00     0.030 H 
ENDBRANCH   4  10
BRANCH   4  14
ATOM     14  C8  <0> d          -2.737  -2.647   0.413  0.00  0.00    -0.051 C 
ATOM     15  H13 <0> d          -3.008  -2.309   1.413  0.00  0.00     0.030 H 
ATOM     16  H14 <0> d          -3.484  -2.303  -0.302  0.00  0.00     0.030 H 
ATOM     17  H15 <0> d          -2.692  -3.736   0.396  0.00  0.00     0.030 H 
ENDBRANCH   4  14
BRANCH   1  18
ATOM     18  C1  <0> d          -0.019   1.526   0.010  0.00  0.00    -0.052 C 
ATOM     19  H2  <0> d           1.004   1.903   0.003  0.00  0.00     0.030 H 
ATOM     20  H3  <0> d          -0.546   1.887  -0.873  0.00  0.00     0.030 H 
ATOM     21  H4  <0> d          -0.529   1.877   0.907  0.00  0.00     0.030 H 
ENDBRANCH   1  18
BRANCH   6  22
ATOM     22  C6  <0> d           1.527  -2.393   2.442  0.00  0.00    -0.016 C 
ATOM     23  H7  <0> d           2.243  -1.634   2.760  0.00  0.00     0.038 H 
ATOM     24  H8  <0> d           0.989  -2.770   3.312  0.00  0.00     0.038 H 
ATOM     25  H9  <0> d           2.058  -3.213   1.958  0.00  0.00     0.038 H 
ENDBRANCH   6  22
TORSDOF 4
