REMARK  8 active torsions:
REMARK  status: ('A' for Active; 'I' for Inactive)
REMARK    1  A    between atoms: C1_1  and  C2_2 
REMARK    2  A    between atoms: C2_2  and  O1_3 
REMARK    3  A    between atoms: O1_3  and  C3_4 
REMARK    4  A    between atoms: C3_4  and  C4_5 
REMARK    5  A    between atoms: C5_6  and  C6_7 
REMARK    6  A    between atoms: C6_7  and  O2_8 
REMARK    7  A    between atoms: O2_8  and  C7_9 
REMARK    8  A    between atoms: C7_9  and  C8_10 
ROOT
ATOM      1  C4  <0> d          -0.901   1.692  -3.506  0.00  0.00    -0.078 C 
ATOM      2  C5  <0> d          -1.529   2.122  -4.400  0.00  0.00    -0.078 C 
ENDROOT
BRANCH   1   3
ATOM      3  C3  <0> d          -0.114   1.152  -2.386  0.00  0.00     0.074 C 
ATOM      4  H6  <0> d           0.907   1.531  -2.443  0.00  0.00     0.093 H 
ATOM      5  H7  <0> d          -0.101   0.064  -2.442  0.00  0.00     0.093 H 
BRANCH   3   6
ATOM      6  O1  <0> d          -0.704   1.559  -1.150  0.00  0.00    -0.380 OA
BRANCH   6   7
ATOM      7  C2  <0> d          -0.013   1.086   0.008  0.00  0.00     0.017 C 
ATOM      8  H4  <0> d           0.002  -0.004   0.002  0.00  0.00     0.073 H 
ATOM      9  H5  <0> d           1.010   1.463   0.000  0.00  0.00     0.073 H 
BRANCH   7  10
ATOM     10  C1  <0> d          -0.729   1.579   1.267  0.00  0.00    -0.056 C 
ATOM     11  H1  <0> d          -0.744   2.669   1.273  0.00  0.00     0.030 H 
ATOM     12  H2  <0> d          -1.751   1.202   1.275  0.00  0.00     0.030 H 
ATOM     13  H3  <0> d          -0.202   1.218   2.150  0.00  0.00     0.030 H 
ENDBRANCH   7  10
ENDBRANCH   6   7
ENDBRANCH   3   6
ENDBRANCH   1   3
BRANCH   2  14
ATOM     14  C6  <0> d          -2.316   2.662  -5.521  0.00  0.00     0.074 C 
ATOM     15  H8  <0> d          -3.337   2.283  -5.464  0.00  0.00     0.093 H 
ATOM     16  H9  <0> d          -2.329   3.750  -5.465  0.00  0.00     0.093 H 
BRANCH  14  17
ATOM     17  O2  <0> d          -1.726   2.255  -6.757  0.00  0.00    -0.380 OA
BRANCH  17  18
ATOM     18  C7  <0> d          -2.417   2.728  -7.915  0.00  0.00     0.017 C 
ATOM     19  H10 <0> d          -3.440   2.351  -7.907  0.00  0.00     0.073 H 
ATOM     20  H11 <0> d          -2.432   3.818  -7.909  0.00  0.00     0.073 H 
BRANCH  18  21
ATOM     21  C8  <0> d          -1.701   2.235  -9.174  0.00  0.00    -0.056 C 
ATOM     22  H12 <0> d          -0.678   2.612  -9.181  0.00  0.00     0.030 H 
ATOM     23  H13 <0> d          -1.686   1.145  -9.180  0.00  0.00     0.030 H 
ATOM     24  H14 <0> d          -2.228   2.596 -10.057  0.00  0.00     0.030 H 
ENDBRANCH  18  21
ENDBRANCH  17  18
ENDBRANCH  14  17
ENDBRANCH   2  14
TORSDOF 8
