REMARK  0 active torsions:
REMARK  status: ('A' for Active; 'I' for Inactive)
ROOT
ATOM      1  C1  <0> d          -0.019   1.541   0.011  0.00  0.00    -0.063 C 
ATOM      2  C2  <0> d           1.478   1.942  -0.002  0.00  0.00    -0.063 C 
ATOM      3  C3  <0> d           2.113   0.877  -0.934  0.00  0.00    -0.040 C 
ATOM      4  C4  <0> d           1.350  -0.411  -0.599  0.00  0.00     0.050 A 
ATOM      5  C5  <0> d           0.002  -0.004   0.002  0.00  0.00    -0.040 C 
ATOM      6  C6  <0> d           1.156  -1.273  -1.853  0.00  0.00     0.020 A 
ATOM      7  N1  <0> d           1.838  -2.533  -1.513  0.00  0.00    -0.341 N 
ATOM      8  C7  <0> d           2.346  -2.438  -0.276  0.00  0.00     0.316 A 
ATOM      9  O1  <0> d           2.963  -3.339   0.259  0.00  0.00    -0.247 OA
ATOM     10  N2  <0> d           2.112  -1.257   0.318  0.00  0.00    -0.332 N 
ATOM     11  H1  <0> d          -0.505   1.911   0.913  0.00  0.00     0.033 H 
ATOM     12  H2  <0> d          -0.523   1.920  -0.878  0.00  0.00     0.033 H 
ATOM     13  H3  <0> d           1.606   2.942  -0.415  0.00  0.00     0.033 H 
ATOM     14  H4  <0> d           1.902   1.879   1.000  0.00  0.00     0.033 H 
ATOM     15  H5  <0> d           1.965   1.148  -1.979  0.00  0.00     0.036 H 
ATOM     16  H6  <0> d           3.174   0.761  -0.714  0.00  0.00     0.036 H 
ATOM     17  H7  <0> d          -0.085  -0.385   1.019  0.00  0.00     0.036 H 
ATOM     18  H8  <0> d          -0.813  -0.386  -0.613  0.00  0.00     0.036 H 
ATOM     19  H9  <0> d           0.097  -1.447  -2.039  0.00  0.00     0.068 H 
ATOM     20  H10 <0> d           1.626  -0.803  -2.717  0.00  0.00     0.068 H 
ATOM     21  H11 <0> d           1.907  -3.309  -2.091  0.00  0.00     0.164 HD
ATOM     22  H12 <0> d           2.402  -1.006   1.209  0.00  0.00     0.165 HD
ENDROOT
TORSDOF 0
