REMARK  1 active torsions:
REMARK  status: ('A' for Active; 'I' for Inactive)
REMARK    1  A    between atoms: C1_1  and  C2_2 
ROOT
ATOM      1  C2  <0> d          -2.549   1.551   0.024  0.00  0.00     0.051 C 
ATOM      2  N1  <0> d          -3.368   2.509  -0.303  0.00  0.00    -0.291 NA
ATOM      3  C3  <0> d          -2.925   3.837  -0.705  0.00  0.00     0.030 C 
ATOM      4  C4  <0> d          -1.661   4.293   0.034  0.00  0.00     0.016 C 
ATOM      5  N2  <0> d          -0.692   3.194   0.024  0.00  0.00    -0.354 N 
ATOM      6  C5  <0> d          -1.117   1.872   0.017  0.00  0.00     0.058 A 
ATOM      7  C6  <0> d          -0.013   1.076   0.008  0.00  0.00    -0.054 A 
ATOM      8  C7  <0> d           1.104   1.928   0.002  0.00  0.00    -0.066 A 
ATOM      9  C8  <0> d           0.653   3.209   0.013  0.00  0.00    -0.020 A 
ATOM     10  H4  <0> d          -2.728   3.831  -1.777  0.00  0.00     0.069 H 
ATOM     11  H5  <0> d          -3.723   4.550  -0.500  0.00  0.00     0.069 H 
ATOM     12  H6  <0> d          -1.903   4.559   1.063  0.00  0.00     0.067 H 
ATOM     13  H7  <0> d          -1.239   5.157  -0.479  0.00  0.00     0.067 H 
ATOM     14  H8  <0> d           0.002  -0.004   0.002  0.00  0.00     0.087 H 
ATOM     15  H9  <0> d           2.139   1.619  -0.009  0.00  0.00     0.085 H 
ATOM     16  H10 <0> d           1.272   4.094   0.013  0.00  0.00     0.111 H 
ENDROOT
BRANCH   1  17
ATOM     17  C1  <0> d          -3.047   0.177   0.392  0.00  0.00    -0.034 C 
ATOM     18  H1  <0> d          -3.212   0.136   1.378  0.00  0.00     0.035 H 
ATOM     19  H2  <0> d          -3.976  -0.027  -0.140  0.00  0.00     0.035 H 
ATOM     20  H3  <0> d          -2.300  -0.567   0.117  0.00  0.00     0.035 H 
ENDBRANCH   1  17
TORSDOF 1
