REMARK  2 active torsions:
REMARK  status: ('A' for Active; 'I' for Inactive)
REMARK    1  A    between atoms: C1_1  and  C2_2 
REMARK    2  A    between atoms: C2_2  and  C3_4 
ROOT
ATOM      1  C3  <0> d          -2.212   1.865  -0.715  0.00  0.00     0.061 C 
ATOM      2  H1  <0> d          -2.498   2.913  -0.889  0.00  0.00     0.063 H 
ATOM      3  C4  <0> d          -2.264   1.488   0.780  0.00  0.00    -0.049 C 
ATOM      4  C5  <0> d          -0.786   1.609   1.243  0.00  0.00    -0.058 C 
ATOM      5  C6  <0> d          -0.013   1.086   0.008  0.00  0.00    -0.009 C 
ATOM      6  C7  <0> d          -0.794   1.612  -1.183  0.00  0.00     0.138 C 
ATOM      7  O2  <0> d          -0.364   1.796  -2.296  0.00  0.00    -0.297 OA
ATOM      8  H5  <0> d          -2.925   2.188   1.312  0.00  0.00     0.034 H 
ATOM      9  H6  <0> d          -2.651   0.465   0.888  0.00  0.00     0.034 H 
ATOM     10  H7  <0> d          -0.561   2.660   1.478  0.00  0.00     0.033 H 
ATOM     11  H8  <0> d          -0.632   0.992   2.140  0.00  0.00     0.033 H 
ATOM     12  H9  <0> d           1.016   1.475   0.028  0.00  0.00     0.044 H 
ATOM     13  H10 <0> d           0.011  -0.014   0.029  0.00  0.00     0.044 H 
ENDROOT
BRANCH   1  14
ATOM     14  C2  <0> d          -3.173   1.005  -1.496  0.00  0.00     0.134 C 
ATOM     15  O1  <0> d          -3.507  -0.072  -1.064  0.00  0.00    -0.298 OA
BRANCH  14  16
ATOM     16  C1  <0> d          -3.716   1.489  -2.816  0.00  0.00    -0.020 C 
ATOM     17  H2  <0> d          -3.300   2.483  -3.041  0.00  0.00     0.037 H 
ATOM     18  H3  <0> d          -4.812   1.555  -2.759  0.00  0.00     0.037 H 
ATOM     19  H4  <0> d          -3.431   0.784  -3.610  0.00  0.00     0.037 H 
ENDBRANCH  14  16
ENDBRANCH   1  14
TORSDOF 2
