REMARK  3 active torsions:
REMARK  status: ('A' for Active; 'I' for Inactive)
REMARK    1  A    between atoms: C1_1  and  C2_2 
REMARK    2  A    between atoms: C2_2  and  O2_4 
REMARK    3  A    between atoms: O2_4  and  C3_5 
ROOT
ATOM      1  C3  <0> d          -0.065   3.842   0.016  0.00  0.00     0.079 A 
ATOM      2  C4  <0> d           1.135   3.150   0.088  0.00  0.00    -0.050 A 
ATOM      3  C5  <0> d           1.136   1.768   0.074  0.00  0.00    -0.080 A 
ATOM      4  C6  <0> d          -0.058   1.076  -0.013  0.00  0.00    -0.083 A 
ATOM      5  C7  <0> d          -1.254   1.763  -0.090  0.00  0.00    -0.080 A 
ATOM      6  C8  <0> d          -1.261   3.145  -0.070  0.00  0.00    -0.050 A 
ATOM      7  H4  <0> d           2.068   3.690   0.155  0.00  0.00     0.087 H 
ATOM      8  H5  <0> d           2.070   1.229   0.130  0.00  0.00     0.083 H 
ATOM      9  H6  <0> d          -0.055  -0.004  -0.024  0.00  0.00     0.083 H 
ATOM     10  H7  <0> d          -2.185   1.220  -0.163  0.00  0.00     0.083 H 
ATOM     11  H8  <0> d          -2.197   3.682  -0.127  0.00  0.00     0.087 H 
ENDROOT
BRANCH   1  12
ATOM     12  O2  <0> d          -0.069   5.201   0.029  0.00  0.00    -0.279 OA
BRANCH  12  13
ATOM     13  C2  <0> d          -0.572   5.798   1.121  0.00  0.00     0.260 C 
ATOM     14  O1  <0> d          -0.898   5.135   2.077  0.00  0.00    -0.265 OA
BRANCH  13  15
ATOM     15  C1  <0> d          -0.729   7.297   1.155  0.00  0.00     0.004 C 
ATOM     16  H1  <0> d          -0.384   7.720   0.212  0.00  0.00     0.041 H 
ATOM     17  H2  <0> d          -1.779   7.549   1.304  0.00  0.00     0.041 H 
ATOM     18  H3  <0> d          -0.138   7.706   1.975  0.00  0.00     0.041 H 
ENDBRANCH  13  15
ENDBRANCH  12  13
ENDBRANCH   1  12
TORSDOF 3
