REMARK  3 active torsions:
REMARK  status: ('A' for Active; 'I' for Inactive)
REMARK    1  A    between atoms: C2_2  and  C3_3 
REMARK    2  A    between atoms: C3_3  and  N1_4 
REMARK    3  A    between atoms: N1_4  and  C4_5 
ROOT
ATOM      1  N1  <0> d          -0.112   5.003   0.029  0.00  0.00    -0.370 N 
ATOM      2  H7  <0> d           0.725   5.494   0.024  0.00  0.00     0.161 HD
ENDROOT
BRANCH   1   3
ATOM      3  C3  <0> d          -1.385   5.727   0.045  0.00  0.00     0.008 C 
ATOM      4  H5  <0> d          -1.963   5.464  -0.842  0.00  0.00     0.070 H 
ATOM      5  H6  <0> d          -1.947   5.455   0.938  0.00  0.00     0.070 H 
BRANCH   3   6
ATOM      6  C2  <0> d          -1.121   7.210   0.050  0.00  0.00    -0.095 C 
ATOM      7  C1  <0> d          -1.655   7.974  -0.870  0.00  0.00    -0.123 C 
ATOM      8  H2  <0> d          -1.465   9.038  -0.866  0.00  0.00     0.066 H 
ATOM      9  H3  <0> d          -2.285   7.541  -1.633  0.00  0.00     0.066 H 
ATOM     10  H4  <0> d          -0.491   7.644   0.813  0.00  0.00     0.078 H 
ENDBRANCH   3   6
ENDBRANCH   1   3
BRANCH   1  11
ATOM     11  C4  <0> d          -0.102   3.628   0.022  0.00  0.00     0.148 A 
ATOM     12  N4  <0> d          -1.239   2.943   0.029  0.00  0.00    -0.174 NA
ATOM     13  C6  <0> d          -1.193   1.608   0.017  0.00  0.00     0.364 A 
ATOM     14  N3  <0> d          -0.011   0.966   0.007  0.00  0.00    -0.227 N 
ATOM     15  O1  <0> d          -2.231   0.966   0.018  0.00  0.00    -0.243 OA
ATOM     16  N2  <0> d           1.102   1.610   0.000  0.00  0.00    -0.179 NA
ATOM     17  H1  <0> d           0.002  -0.004   0.002  0.00  0.00     0.194 HD
ATOM     18  C5  <0> d           1.121   2.915   0.007  0.00  0.00     0.066 A 
ATOM     19  H8  <0> d           2.061   3.446   0.001  0.00  0.00     0.123 H 
ENDBRANCH   1  11
TORSDOF 3
