REMARK  6 active torsions:
REMARK  status: ('A' for Active; 'I' for Inactive)
REMARK    1  A    between atoms: C1_1  and  C2_2 
REMARK    2  A    between atoms: C2_2  and  C3_3 
REMARK    3  A    between atoms: C3_3  and  C4_4 
REMARK    4  A    between atoms: C3_3  and  C6_6 
REMARK    5  A    between atoms: C3_3  and  O1_9 
REMARK    6  A    between atoms: C4_4  and  C5_5 
ROOT
ATOM      1  C6  <0> d           2.098   1.121  -1.131  0.00  0.00    -0.051 C 
ATOM      2  C7  <0> d           2.789   0.789  -2.021  0.00  0.00     0.008 C 
ATOM      3 Cl1  <0> d           3.754   0.326  -3.263  0.00  0.00    -0.023 Cl
ENDROOT
BRANCH   1   4
ATOM      4  C3  <0> d           1.232   1.537  -0.016  0.00  0.00     0.121 C 
BRANCH   4   5
ATOM      5  C2  <0> d           1.044   3.055  -0.056  0.00  0.00    -0.029 C 
ATOM      6  H4  <0> d           0.402   3.362   0.770  0.00  0.00     0.038 H 
ATOM      7  H5  <0> d           2.013   3.544   0.036  0.00  0.00     0.038 H 
BRANCH   5   8
ATOM      8  C1  <0> d           0.395   3.453  -1.383  0.00  0.00    -0.073 C 
ATOM      9  H1  <0> d           1.012   3.101  -2.209  0.00  0.00     0.027 H 
ATOM     10  H2  <0> d          -0.596   3.004  -1.452  0.00  0.00     0.027 H 
ATOM     11  H3  <0> d           0.306   4.539  -1.432  0.00  0.00     0.027 H 
ENDBRANCH   5   8
ENDBRANCH   4   5
BRANCH   4  12
ATOM     12  C4  <0> d           1.882   1.138   1.310  0.00  0.00    -0.029 C 
ATOM     13  H6  <0> d           2.021   0.057   1.336  0.00  0.00     0.038 H 
ATOM     14  H7  <0> d           2.849   1.631   1.404  0.00  0.00     0.038 H 
BRANCH  12  15
ATOM     15  C5  <0> d           0.978   1.563   2.469  0.00  0.00    -0.073 C 
ATOM     16  H8  <0> d           0.920   2.651   2.504  0.00  0.00     0.027 H 
ATOM     17  H9  <0> d          -0.020   1.151   2.322  0.00  0.00     0.027 H 
ATOM     18  H10 <0> d           1.390   1.191   3.407  0.00  0.00     0.027 H 
ENDBRANCH  12  15
ENDBRANCH   4  12
BRANCH   4  19
ATOM     19  O1  <0> d          -0.039   0.895  -0.136  0.00  0.00    -0.378 OA
ATOM     20  H11 <0> d           0.004  -0.070  -0.118  0.00  0.00     0.211 HD
ENDBRANCH   4  19
ENDBRANCH   1   4
TORSDOF 6
