REMARK  3 active torsions:
REMARK  status: ('A' for Active; 'I' for Inactive)
REMARK    1  A    between atoms: C1_1  and  C2_2 
REMARK    2  A    between atoms: C3_4  and  C6_10 
REMARK    3  A    between atoms: C4_5  and  O3_9 
ROOT
ATOM      1  C2  <0> d          -0.729   1.579   1.267  0.00  0.00     0.069 A 
ATOM      2  H1  <0> d          -1.751   1.173   1.284  0.00  0.00     0.090 H 
ATOM      3  C3  <0> d          -0.718   3.089   1.313  0.00  0.00    -0.016 A 
ATOM      4  C4  <0> d          -0.062   3.439   2.421  0.00  0.00     0.146 A 
ATOM      5  C5  <0> d           0.374   2.229   3.132  0.00  0.00     0.317 A 
ATOM      6  O1  <0> d           0.996   2.219   4.176  0.00  0.00    -0.257 OA
ATOM      7  O2  <0> d          -0.017   1.134   2.455  0.00  0.00    -0.306 OA
ENDROOT
BRANCH   1   8
ATOM      8  C1  <0> d          -0.013   1.086   0.008  0.00  0.00    -0.048 C 
ATOM      9  H2  <0> d          -0.559   1.428  -0.883  0.00  0.00     0.031 H 
ATOM     10  H3  <0> d           0.025  -0.013   0.015  0.00  0.00     0.031 H 
ATOM     11  H4  <0> d           1.011   1.488  -0.013  0.00  0.00     0.031 H 
ENDBRANCH   1   8
BRANCH   3  12
ATOM     12  C6  <0> d          -1.331   4.022   0.301  0.00  0.00    -0.049 C 
ATOM     13  H6  <0> d          -1.158   5.064   0.610  0.00  0.00     0.033 H 
ATOM     14  H7  <0> d          -2.413   3.834   0.236  0.00  0.00     0.033 H 
ATOM     15  H8  <0> d          -0.869   3.851  -0.683  0.00  0.00     0.033 H 
ENDBRANCH   3  12
BRANCH   4  16
ATOM     16  O3  <0> d           0.166   4.716   2.829  0.00  0.00    -0.355 OA
ATOM     17  H5  <0> d           0.719   4.905   3.761  0.00  0.00     0.218 HD
ENDBRANCH   4  16
TORSDOF 3
