REMARK  0 active torsions:
REMARK  status: ('A' for Active; 'I' for Inactive)
ROOT
ATOM      1  C1  <0> d          -0.017   1.429   0.010  0.00  0.00     0.050 C 
ATOM      2  C2  <0> d           1.516   1.409  -0.005  0.00  0.00     0.119 C 
ATOM      3  C3  <0> d           1.271   0.051   0.666  0.00  0.00     0.050 C 
ATOM      4  O1  <0> d           0.002  -0.004   0.002  0.00  0.00    -0.385 OA
ATOM      5  F1  <0> d           2.084   1.332  -1.281  0.00  0.00    -0.245 F 
ATOM      6  H1  <0> d          -0.436   1.851   0.924  0.00  0.00     0.078 H 
ATOM      7  H2  <0> d          -0.453   1.861  -0.891  0.00  0.00     0.078 H 
ATOM      8  H3  <0> d           1.986   2.154   0.637  0.00  0.00     0.098 H 
ATOM      9  H4  <0> d           1.964  -0.724   0.340  0.00  0.00     0.078 H 
ATOM     10  H5  <0> d           1.189   0.114   1.751  0.00  0.00     0.078 H 
ENDROOT
TORSDOF 0
