REMARK  1 active torsions:
REMARK  status: ('A' for Active; 'I' for Inactive)
REMARK    1  A    between atoms: C7_12  and  C8_14 
ROOT
ATOM      1  C8  <0> d          -1.097   4.419   1.431  0.00  0.00     0.019 C 
ATOM      2  C9  <0> d          -0.275   5.596   1.757  0.00  0.00     0.059 C 
ATOM      3  N1  <0> d           0.360   6.504   2.009  0.00  0.00    -0.197 NA
ATOM      4  H8  <0> d          -1.629   4.595   0.497  0.00  0.00     0.055 H 
ATOM      5  H9  <0> d          -1.815   4.245   2.232  0.00  0.00     0.055 H 
ENDROOT
BRANCH   1   6
ATOM      6  C7  <0> d          -0.194   3.192   1.281  0.00  0.00    -0.028 C 
ATOM      7  C3  <0> d          -1.009   1.926   0.825  0.00  0.00    -0.034 A 
ATOM      8  C2  <0> d          -1.025   1.935  -0.781  0.00  0.00    -0.038 A 
ATOM      9  H2  <0> d          -1.802   1.530   1.460  0.00  0.00     0.042 H 
ATOM     10  C4  <0> d          -0.013   1.086   0.008  0.00  0.00     0.012 A 
ATOM     11  C1  <0> d          -0.234   3.232  -1.190  0.00  0.00    -0.051 C 
ATOM     12  H1  <0> d          -1.837   1.546  -1.395  0.00  0.00     0.042 H 
ATOM     13  C6  <0> d           0.756   3.323   0.032  0.00  0.00     0.009 C 
ATOM     14  H6  <0> d          -0.880   4.108  -1.248  0.00  0.00     0.034 H 
ATOM     15  H7  <0> d           0.299   3.069  -2.127  0.00  0.00     0.034 H 
ATOM     16  C5  <0> d           1.298   1.874  -0.000  0.00  0.00     0.136 C 
ATOM     17  H4  <0> d           1.345   4.124  -0.075  0.00  0.00     0.052 H 
ATOM     18  O1  <0> d           2.438   1.476  -0.025  0.00  0.00    -0.297 OA
ATOM     19  H3  <0> d          -0.022   0.148  -0.339  0.00  0.00     0.053 H 
ATOM     20  H5  <0> d           0.368   2.999   2.194  0.00  0.00     0.043 H 
ENDBRANCH   1   6
TORSDOF 1
