REMARK  4 active torsions:
REMARK  status: ('A' for Active; 'I' for Inactive)
REMARK    1  A    between atoms: C1_1  and  C2_2 
REMARK    2  A    between atoms: C2_2  and  C3_4 
REMARK    3  A    between atoms: C2_2  and  O1_10 
REMARK    4  A    between atoms: N1_7  and  C6_9 
ROOT
ATOM      1  C3  <0> d          -0.016   1.304   0.009  0.00  0.00     0.084 A 
ATOM      2  C4  <0> d           1.307   1.759  -0.001  0.00  0.00    -0.038 A 
ATOM      3  C5  <0> d           2.119   0.677  -0.015  0.00  0.00    -0.000 A 
ATOM      4  N1  <0> d           1.339  -0.424  -0.013  0.00  0.00    -0.285 N 
ATOM      5  N2  <0> d           0.002  -0.004   0.002  0.00  0.00    -0.175 NA
ATOM      6  H5  <0> d           1.624   2.792   0.001  0.00  0.00     0.089 H 
ATOM      7  H6  <0> d           3.199   0.692  -0.025  0.00  0.00     0.114 H 
ENDROOT
BRANCH   1   8
ATOM      8  C2  <0> d          -1.248   2.171   0.020  0.00  0.00     0.075 C 
ATOM      9  H1  <0> d          -1.790   2.020   0.954  0.00  0.00     0.092 H 
BRANCH   8  10
ATOM     10  C1  <0> d          -2.147   1.794  -1.159  0.00  0.00    -0.047 C 
ATOM     11  H2  <0> d          -2.439   0.747  -1.073  0.00  0.00     0.031 H 
ATOM     12  H3  <0> d          -3.039   2.421  -1.151  0.00  0.00     0.031 H 
ATOM     13  H4  <0> d          -1.605   1.945  -2.092  0.00  0.00     0.031 H 
ENDBRANCH   8  10
BRANCH   8  14
ATOM     14  O1  <0> d          -0.866   3.543  -0.092  0.00  0.00    -0.390 OA
ATOM     15  H10 <0> d          -0.379   3.751  -0.901  0.00  0.00     0.210 HD
ENDBRANCH   8  14
ENDBRANCH   1   8
BRANCH   4  16
ATOM     16  C6  <0> d           1.806  -1.812  -0.025  0.00  0.00     0.002 C 
ATOM     17  H7  <0> d           1.913  -2.151  -1.056  0.00  0.00     0.059 H 
ATOM     18  H8  <0> d           2.770  -1.875   0.480  0.00  0.00     0.059 H 
ATOM     19  H9  <0> d           1.083  -2.443   0.492  0.00  0.00     0.059 H 
ENDBRANCH   4  16
TORSDOF 4
