REMARK  1 active torsions:
REMARK  status: ('A' for Active; 'I' for Inactive)
REMARK    1  A    between atoms: C5_6  and  O3_12 
ROOT
ATOM      1  C1  <0> d          -0.505   1.941  -1.399  0.00  0.00     0.050 C 
ATOM      2  C2  <0> d          -0.018   1.512   0.010  0.00  0.00     0.078 C 
ATOM      3  H1  <0> d          -0.600   1.931   0.832  0.00  0.00     0.093 H 
ATOM      4  C3  <0> d           0.002  -0.004   0.002  0.00  0.00    -0.075 C 
ATOM      5  C4  <0> d           0.947  -0.636  -0.640  0.00  0.00    -0.072 C 
ATOM      6  C5  <0> d           2.043   0.095  -1.367  0.00  0.00     0.099 C 
ATOM      7  H2  <0> d           2.080  -0.247  -2.402  0.00  0.00     0.097 H 
ATOM      8  C6  <0> d           1.783   1.604  -1.340  0.00  0.00     0.159 C 
ATOM      9  H3  <0> d           2.684   2.152  -1.614  0.00  0.00     0.133 H 
ATOM     10  O1  <0> d           0.687   1.933  -2.206  0.00  0.00    -0.355 OA
ATOM     11  O2  <0> d           1.365   1.950  -0.001  0.00  0.00    -0.347 OA
ATOM     12  H4  <0> d          -1.231   1.225  -1.786  0.00  0.00     0.079 H 
ATOM     13  H5  <0> d          -0.936   2.941  -1.366  0.00  0.00     0.079 H 
ATOM     14  H6  <0> d          -0.762  -0.559   0.525  0.00  0.00     0.080 H 
ATOM     15  H7  <0> d           0.942  -1.716  -0.649  0.00  0.00     0.080 H 
ENDROOT
BRANCH   6  16
ATOM     16  O3  <0> d           3.295  -0.177  -0.734  0.00  0.00    -0.387 OA
ATOM     17  H8  <0> d           3.534  -1.114  -0.722  0.00  0.00     0.210 HD
ENDBRANCH   6  16
TORSDOF 1
