REMARK  3 active torsions:
REMARK  status: ('A' for Active; 'I' for Inactive)
REMARK    1  A    between atoms: C1_1  and  C2_2 
REMARK    2  A    between atoms: C2_2  and  C7_11 
REMARK    3  A    between atoms: C4_5  and  C5_8 
ROOT
ATOM      1  C5  <0> d          -0.013   1.086   0.008  0.00  0.00     0.041 C 
ATOM      2  C6  <0> d          -0.725   1.573  -1.185  0.00  0.00     0.061 C 
ATOM      3  N1  <0> d          -1.274   1.950  -2.105  0.00  0.00    -0.197 NA
ATOM      4  H7  <0> d           0.002  -0.004   0.002  0.00  0.00     0.059 H 
ATOM      5  H8  <0> d           1.010   1.463   0.000  0.00  0.00     0.059 H 
ENDROOT
BRANCH   1   6
ATOM      6  C4  <0> d          -0.729   1.579   1.267  0.00  0.00     0.074 C 
ATOM      7  C3  <0> d           0.066   1.188   2.538  0.00  0.00     0.048 C 
ATOM      8  O1  <0> d          -0.982   1.138   3.536  0.00  0.00    -0.353 OA
ATOM      9  H5  <0> d           0.538   0.213   2.418  0.00  0.00     0.078 H 
ATOM     10  H6  <0> d           0.806   1.950   2.785  0.00  0.00     0.078 H 
ATOM     11  C2  <0> d          -2.126   0.615   2.842  0.00  0.00     0.157 C 
ATOM     12  O2  <0> d          -1.984   0.891   1.442  0.00  0.00    -0.348 OA
ATOM     13  H1  <0> d          -0.881   2.658   1.224  0.00  0.00     0.088 H 
BRANCH  11  14
ATOM     14  C1  <0> d          -2.214  -0.897   3.061  0.00  0.00    -0.026 C 
ATOM     15  H2  <0> d          -2.337  -1.103   4.124  0.00  0.00     0.035 H 
ATOM     16  H3  <0> d          -3.067  -1.295   2.512  0.00  0.00     0.035 H 
ATOM     17  H4  <0> d          -1.299  -1.370   2.702  0.00  0.00     0.035 H 
ENDBRANCH  11  14
BRANCH  11  18
ATOM     18  C7  <0> d          -3.398   1.282   3.370  0.00  0.00    -0.026 C 
ATOM     19  H9  <0> d          -3.326   2.361   3.232  0.00  0.00     0.035 H 
ATOM     20  H10 <0> d          -4.261   0.902   2.824  0.00  0.00     0.035 H 
ATOM     21  H11 <0> d          -3.511   1.058   4.431  0.00  0.00     0.035 H 
ENDBRANCH  11  18
ENDBRANCH   1   6
TORSDOF 3
