REMARK  5 active torsions:
REMARK  status: ('A' for Active; 'I' for Inactive)
REMARK    1  A    between atoms: C1_1  and  C2_2 
REMARK    2  A    between atoms: C2_2  and  C3_4 
REMARK    3  A    between atoms: C2_2  and  O2_7 
REMARK    4  A    between atoms: C3_4  and  C4_5 
REMARK    5  A    between atoms: O2_7  and  C5_8 
ROOT
ATOM      1  C2  <0> d          -0.729   1.579   1.267  0.00  0.00     0.043 C 
ATOM      2  H1  <0> d          -0.822   2.665   1.230  0.00  0.00     0.083 H 
ENDROOT
BRANCH   1   3
ATOM      3  C1  <0> d           0.079   1.179   2.503  0.00  0.00    -0.052 C 
ATOM      4  H2  <0> d           1.071   1.627   2.450  0.00  0.00     0.030 H 
ATOM      5  H3  <0> d          -0.432   1.530   3.400  0.00  0.00     0.030 H 
ATOM      6  H4  <0> d           0.172   0.093   2.540  0.00  0.00     0.030 H 
ENDBRANCH   1   3
BRANCH   1   7
ATOM      7  C3  <0> d          -0.013   1.086   0.008  0.00  0.00     0.039 C 
ATOM      8  H5  <0> d           0.002  -0.004   0.002  0.00  0.00     0.052 H 
ATOM      9  H6  <0> d           1.010   1.463   0.000  0.00  0.00     0.052 H 
BRANCH   7  10
ATOM     10  C4  <0> d          -0.742   1.585  -1.213  0.00  0.00     0.175 C 
ATOM     11  O1  <0> d          -1.732   2.266  -1.089  0.00  0.00    -0.648 OA
ATOM     12  O3  <0> d          -0.290   1.274  -2.438  0.00  0.00    -0.648 OA
ENDBRANCH   7  10
ENDBRANCH   1   7
BRANCH   1  13
ATOM     13  O2  <0> d          -2.030   0.991   1.336  0.00  0.00    -0.391 OA
BRANCH  13  14
ATOM     14  C5  <0> d          -3.001   1.806   1.995  0.00  0.00     0.004 C 
ATOM     15  H7  <0> d          -3.961   1.290   2.006  0.00  0.00     0.066 H 
ATOM     16  H8  <0> d          -2.680   1.998   3.019  0.00  0.00     0.066 H 
ATOM     17  H9  <0> d          -3.104   2.752   1.463  0.00  0.00     0.066 H 
ENDBRANCH  13  14
ENDBRANCH   1  13
TORSDOF 5
