REMARK  2 active torsions:
REMARK  status: ('A' for Active; 'I' for Inactive)
REMARK    1  A    between atoms: C1_1  and  C2_2 
REMARK    2  A    between atoms: C6_7  and  O1_9 
ROOT
ATOM      1  C2  <0> d          -1.260   3.028   0.798  0.00  0.00    -0.033 C 
ATOM      2  H1  <0> d          -0.559   3.776   1.170  0.00  0.00     0.043 H 
ATOM      3  C3  <0> d          -0.802   1.617   1.230  0.00  0.00    -0.060 C 
ATOM      4  C4  <0> d          -0.013   1.086   0.008  0.00  0.00    -0.062 C 
ATOM      5  C5  <0> d          -0.825   1.630  -1.193  0.00  0.00    -0.041 C 
ATOM      6  C6  <0> d          -1.272   3.036  -0.741  0.00  0.00     0.038 C 
ATOM      7  H2  <0> d          -2.278   3.243  -1.105  0.00  0.00     0.083 H 
ATOM      8  H6  <0> d          -1.665   0.983   1.432  0.00  0.00     0.033 H 
ATOM      9  H7  <0> d          -0.156   1.674   2.106  0.00  0.00     0.033 H 
ATOM     10  H8  <0> d           0.002  -0.004   0.002  0.00  0.00     0.033 H 
ATOM     11  H9  <0> d           1.002   1.484   0.001  0.00  0.00     0.033 H 
ATOM     12  H10 <0> d          -0.196   1.697  -2.080  0.00  0.00     0.036 H 
ATOM     13  H11 <0> d          -1.692   0.998  -1.385  0.00  0.00     0.036 H 
ENDROOT
BRANCH   1  14
ATOM     14  C1  <0> d          -2.664   3.313   1.334  0.00  0.00    -0.071 C 
ATOM     15  H3  <0> d          -3.352   2.547   0.977  0.00  0.00     0.028 H 
ATOM     16  H4  <0> d          -2.645   3.305   2.424  0.00  0.00     0.028 H 
ATOM     17  H5  <0> d          -2.995   4.291   0.984  0.00  0.00     0.028 H 
ENDBRANCH   1  14
BRANCH   6  18
ATOM     18  O1  <0> d          -0.360   4.021  -1.232  0.00  0.00    -0.395 OA
ATOM     19  H12 <0> d          -0.307   4.061  -2.197  0.00  0.00     0.210 HD
ENDBRANCH   6  18
TORSDOF 2
