REMARK  0 active torsions:
REMARK  status: ('A' for Active; 'I' for Inactive)
ROOT
ATOM      1  C1  <0> d          -0.019   1.525   0.010  0.00  0.00    -0.063 C 
ATOM      2  C2  <0> d           0.002  -0.004   0.002  0.00  0.00    -0.059 C 
ATOM      3  C3  <0> d           0.639  -0.497  -1.301  0.00  0.00    -0.008 C 
ATOM      4  C4  <0> d           2.001   0.145  -1.444  0.00  0.00     0.144 C 
ATOM      5  O1  <0> d           2.982  -0.524  -1.665  0.00  0.00    -0.297 OA
ATOM      6  C5  <0> d           2.103   1.648  -1.304  0.00  0.00     0.087 C 
ATOM      7  H1  <0> d           3.067   1.916  -1.282  0.00  0.00     0.074 H 
ATOM      8  C6  <0> d           1.413   2.063  -0.000  0.00  0.00    -0.043 C 
ATOM      9  C7  <0> d           1.438   2.297  -2.445  0.00  0.00     0.071 C 
ATOM     10  N1  <0> d           0.924   2.799  -3.325  0.00  0.00    -0.196 NA
ATOM     11  H2  <0> d          -0.548   1.885  -0.872  0.00  0.00     0.033 H 
ATOM     12  H3  <0> d          -0.531   1.876   0.907  0.00  0.00     0.033 H 
ATOM     13  H4  <0> d           0.584  -0.364   0.850  0.00  0.00     0.033 H 
ATOM     14  H5  <0> d          -1.018  -0.382   0.074  0.00  0.00     0.033 H 
ATOM     15  H6  <0> d           0.733  -1.493  -1.271  0.00  0.00     0.044 H 
ATOM     16  H7  <0> d           0.009  -0.218  -2.146  0.00  0.00     0.044 H 
ATOM     17  H8  <0> d           1.393   3.151   0.070  0.00  0.00     0.035 H 
ATOM     18  H9  <0> d           1.962   1.654   0.848  0.00  0.00     0.035 H 
ENDROOT
TORSDOF 0
