REMARK  2 active torsions:
REMARK  status: ('A' for Active; 'I' for Inactive)
REMARK    1  A    between atoms: C1_1  and  C2_2 
REMARK    2  A    between atoms: C8_8  and  C9_11 
ROOT
ATOM      1  C2  <0> d           1.163   3.171   0.008  0.00  0.00    -0.061 A 
ATOM      2  C3  <0> d           1.170   1.783   0.001  0.00  0.00    -0.074 A 
ATOM      3  C4  <0> d          -0.013   1.076   0.008  0.00  0.00    -0.047 A 
ATOM      4  C5  <0> d          -1.224   1.756   0.017  0.00  0.00     0.113 A 
ATOM      5  C6  <0> d          -1.227   3.161   0.031  0.00  0.00     0.027 A 
ATOM      6  C7  <0> d          -0.017   3.859   0.023  0.00  0.00    -0.062 A 
ATOM      7  C8  <0> d          -2.634   3.572   0.047  0.00  0.00     0.071 A 
ATOM      8  N1  <0> d          -3.354   2.493   0.031  0.00  0.00    -0.132 NA
ATOM      9  O1  <0> d          -2.512   1.357   0.021  0.00  0.00    -0.212 OA
ATOM     10  H4  <0> d           2.111   1.253  -0.011  0.00  0.00     0.084 H 
ATOM     11  H5  <0> d           0.002  -0.004   0.002  0.00  0.00     0.087 H 
ATOM     12  H6  <0> d          -0.015   4.939   0.029  0.00  0.00     0.085 H 
ENDROOT
BRANCH   1  13
ATOM     13  C1  <0> d           2.468   3.925  -0.001  0.00  0.00    -0.051 C 
ATOM     14  H1  <0> d           2.773   4.112  -1.031  0.00  0.00     0.033 H 
ATOM     15  H2  <0> d           2.342   4.875   0.519  0.00  0.00     0.033 H 
ATOM     16  H3  <0> d           3.233   3.334   0.502  0.00  0.00     0.033 H 
ENDBRANCH   1  13
BRANCH   7  17
ATOM     17  C9  <0> d          -3.149   4.988   0.060  0.00  0.00    -0.033 C 
ATOM     18  H7  <0> d          -3.283   5.335  -0.965  0.00  0.00     0.035 H 
ATOM     19  H8  <0> d          -4.105   5.022   0.583  0.00  0.00     0.035 H 
ATOM     20  H9  <0> d          -2.432   5.631   0.570  0.00  0.00     0.035 H 
ENDBRANCH   7  17
TORSDOF 2
