REMARK  1 active torsions:
REMARK  status: ('A' for Active; 'I' for Inactive)
REMARK    1  A    between atoms: C1_1  and  C2_2 
ROOT
ATOM      1  C2  <0> d           0.204   5.179   0.027  0.00  0.00    -0.014 A 
ATOM      2  C3  <0> d           1.544   5.274   0.015  0.00  0.00    -0.013 A 
ATOM      3  N1  <0> d           2.101   4.025   0.003  0.00  0.00    -0.348 N 
ATOM      4  H1  <0> d           3.195   3.911  -0.008  0.00  0.00     0.167 HD
ATOM      5  C4  <0> d           1.113   3.071   0.007  0.00  0.00     0.156 A 
ATOM      6  C5  <0> d          -0.123   3.752   0.022  0.00  0.00     0.109 A 
ATOM      7  N2  <0> d          -1.261   3.065   0.030  0.00  0.00    -0.255 NA
ATOM      8  C6  <0> d          -1.227   1.746   0.017  0.00  0.00     0.020 A 
ATOM      9  C7  <0> d          -0.013   1.076   0.008  0.00  0.00     0.021 A 
ATOM     10  N3  <0> d           1.125   1.745   0.001  0.00  0.00    -0.240 NA
ATOM     11  H5  <0> d           2.099   6.200   0.014  0.00  0.00     0.112 H 
ATOM     12  H6  <0> d          -2.150   1.185   0.019  0.00  0.00     0.117 H 
ATOM     13  H7  <0> d           0.002  -0.004   0.002  0.00  0.00     0.117 H 
ENDROOT
BRANCH   1  14
ATOM     14  C1  <0> d          -0.776   6.323   0.042  0.00  0.00    -0.048 C 
ATOM     15  H2  <0> d          -0.227   7.276   0.042  0.00  0.00     0.033 H 
ATOM     16  H3  <0> d          -1.400   6.260   0.946  0.00  0.00     0.033 H 
ATOM     17  H4  <0> d          -1.418   6.269  -0.850  0.00  0.00     0.033 H 
ENDBRANCH   1  14
TORSDOF 1
