REMARK  0 active torsions:
REMARK  status: ('A' for Active; 'I' for Inactive)
ROOT
ATOM      1  C1  <0> d          -0.019   1.538   0.011  0.00  0.00    -0.047 C 
ATOM      2  C2  <0> d           1.477   1.939  -0.002  0.00  0.00    -0.047 C 
ATOM      3  C3  <0> d           2.107   0.881  -0.942  0.00  0.00     0.047 C 
ATOM      4  H1  <0> d           1.946   1.155  -1.985  0.00  0.00     0.065 H 
ATOM      5  C4  <0> d           1.353  -0.422  -0.604  0.00  0.00     0.061 C 
ATOM      6  C5  <0> d           0.002  -0.004   0.002  0.00  0.00     0.047 C 
ATOM      7  H2  <0> d          -0.084  -0.384   1.020  0.00  0.00     0.065 H 
ATOM      8  C6  <0> d          -1.102  -0.519  -0.825  0.00  0.00     0.065 C 
ATOM      9  N1  <0> d          -1.954  -0.916  -1.462  0.00  0.00    -0.197 NA
ATOM     10  C7  <0> d           1.135  -1.211  -1.827  0.00  0.00     0.066 C 
ATOM     11  N2  <0> d           0.967  -1.819  -2.772  0.00  0.00    -0.197 NA
ATOM     12  C8  <0> d           3.545   0.735  -0.665  0.00  0.00     0.065 C 
ATOM     13  N3  <0> d           4.655   0.623  -0.450  0.00  0.00    -0.197 NA
ATOM     14  H3  <0> d          -0.505   1.908   0.913  0.00  0.00     0.035 H 
ATOM     15  H4  <0> d          -0.522   1.918  -0.878  0.00  0.00     0.035 H 
ATOM     16  H5  <0> d           1.606   2.942  -0.408  0.00  0.00     0.035 H 
ATOM     17  H6  <0> d           1.904   1.868   0.999  0.00  0.00     0.035 H 
ATOM     18  H7  <0> d           1.923  -1.005   0.120  0.00  0.00     0.067 H 
ENDROOT
TORSDOF 0
