REMARK  4 active torsions:
REMARK  status: ('A' for Active; 'I' for Inactive)
REMARK    1  A    between atoms: C1_1  and  C2_2 
REMARK    2  A    between atoms: C3_5  and  N3_7 
REMARK    3  A    between atoms: N3_7  and  C4_8 
REMARK    4  A    between atoms: C4_8  and  C5_9 
ROOT
ATOM      1  N3  <0> d           1.356  -2.058  -0.021  0.00  0.00    -0.364 N 
ATOM      2  H4  <0> d           2.262  -2.405  -0.032  0.00  0.00     0.162 HD
ENDROOT
BRANCH   1   3
ATOM      3  C3  <0> d           1.139  -0.688  -0.013  0.00  0.00     0.190 A 
ATOM      4  N2  <0> d           0.002  -0.004   0.002  0.00  0.00    -0.124 NA
ATOM      5  N1  <0> d          -0.015   1.257   0.009  0.00  0.00    -0.145 NA
ATOM      6  C2  <0> d           1.090   1.974   0.002  0.00  0.00     0.097 A 
ATOM      7  S1  <0> d           2.312   0.665  -0.016  0.00  0.00    -0.034 SA
BRANCH   6   8
ATOM      8  C1  <0> d           1.274   3.470   0.008  0.00  0.00    -0.028 C 
ATOM      9  H1  <0> d           1.328   3.826   1.037  0.00  0.00     0.036 H 
ATOM     10  H2  <0> d           2.196   3.725  -0.514  0.00  0.00     0.036 H 
ATOM     11  H3  <0> d           0.430   3.942  -0.496  0.00  0.00     0.036 H 
ENDBRANCH   6   8
ENDBRANCH   1   3
BRANCH   1  12
ATOM     12  C4  <0> d           0.218  -2.980  -0.015  0.00  0.00     0.009 C 
ATOM     13  H5  <0> d          -0.379  -2.814   0.881  0.00  0.00     0.070 H 
ATOM     14  H6  <0> d          -0.396  -2.805  -0.898  0.00  0.00     0.070 H 
BRANCH  12  15
ATOM     15  C5  <0> d           0.722  -4.400  -0.027  0.00  0.00    -0.095 C 
ATOM     16  C6  <0> d           0.337  -5.240   0.902  0.00  0.00    -0.123 C 
ATOM     17  H8  <0> d          -0.342  -4.914   1.676  0.00  0.00     0.066 H 
ATOM     18  H9  <0> d           0.699  -6.257   0.894  0.00  0.00     0.066 H 
ATOM     19  H7  <0> d           1.401  -4.726  -0.801  0.00  0.00     0.078 H 
ENDBRANCH  12  15
ENDBRANCH   1  12
TORSDOF 4
