REMARK  2 active torsions:
REMARK  status: ('A' for Active; 'I' for Inactive)
REMARK    1  A    between atoms: C1_1  and  C2_2 
REMARK    2  A    between atoms: C4_5  and  N4_11 
ROOT
ATOM      1  C2  <0> d           4.435   0.833  -0.035  0.00  0.00     0.145 A 
ATOM      2  N1  <0> d           3.680  -0.256  -0.034  0.00  0.00    -0.210 NA
ATOM      3  C3  <0> d           2.398   0.088  -0.020  0.00  0.00     0.178 A 
ATOM      4  C4  <0> d           1.201  -0.662  -0.013  0.00  0.00     0.074 A 
ATOM      5  C5  <0> d           0.002  -0.004   0.002  0.00  0.00    -0.052 A 
ATOM      6  C6  <0> d          -0.017   1.398   0.010  0.00  0.00    -0.064 A 
ATOM      7  C7  <0> d           1.141   2.095   0.002  0.00  0.00     0.006 A 
ATOM      8  N2  <0> d           2.340   1.452  -0.013  0.00  0.00    -0.223 N 
ATOM      9  N3  <0> d           3.669   1.899  -0.022  0.00  0.00    -0.151 NA
ATOM     10  H4  <0> d          -0.924  -0.560   0.008  0.00  0.00     0.087 H 
ATOM     11  H5  <0> d          -0.961   1.923   0.017  0.00  0.00     0.085 H 
ATOM     12  H6  <0> d           1.114   3.175   0.009  0.00  0.00     0.114 H 
ENDROOT
BRANCH   1  13
ATOM     13  C1  <0> d           5.942   0.846  -0.048  0.00  0.00    -0.018 C 
ATOM     14  H1  <0> d           6.317  -0.188  -0.057  0.00  0.00     0.038 H 
ATOM     15  H2  <0> d           6.312   1.362   0.850  0.00  0.00     0.038 H 
ATOM     16  H3  <0> d           6.296   1.372  -0.947  0.00  0.00     0.038 H 
ENDBRANCH   1  13
BRANCH   4  17
ATOM     17  N4  <0> d           1.241  -2.058  -0.021  0.00  0.00    -0.396 N 
ATOM     18  H7  <0> d           0.305  -2.636  -0.015  0.00  0.00     0.156 HD
ATOM     19  H8  <0> d           2.209  -2.580  -0.034  0.00  0.00     0.156 HD
ENDBRANCH   4  17
TORSDOF 2
