REMARK  2 active torsions:
REMARK  status: ('A' for Active; 'I' for Inactive)
REMARK    1  A    between atoms: C1_1  and  C2_2 
REMARK    2  A    between atoms: C2_2  and  C9_12 
ROOT
ATOM      1  C2  <0> d          -0.019   1.555   0.011  0.00  0.00     0.017 C 
ATOM      2  C3  <0> d          -0.281   0.028  -0.165  0.00  0.00    -0.040 C 
ATOM      3  H1  <0> d          -1.238  -0.246  -0.609  0.00  0.00     0.041 H 
ATOM      4  C4  <0> d           0.043  -0.582   1.234  0.00  0.00    -0.060 C 
ATOM      5  C5  <0> d           1.576  -0.433   1.374  0.00  0.00    -0.055 C 
ATOM      6  C6  <0> d           2.027   0.244   0.044  0.00  0.00     0.005 C 
ATOM      7  H2  <0> d           3.010   0.110  -0.081  0.00  0.00     0.051 H 
ATOM      8  C7  <0> d           1.004  -0.385  -0.966  0.00  0.00    -0.051 C 
ATOM      9  C8  <0> d           1.492   1.680   0.140  0.00  0.00     0.139 C 
ATOM     10  O1  <0> d           2.133   2.692   0.288  0.00  0.00    -0.297 OA
ATOM     11  H6  <0> d          -0.467  -0.025   2.019  0.00  0.00     0.033 H 
ATOM     12  H7  <0> d          -0.241  -1.634   1.265  0.00  0.00     0.033 H 
ATOM     13  H8  <0> d           2.045  -1.411   1.481  0.00  0.00     0.034 H 
ATOM     14  H9  <0> d           1.819   0.202   2.225  0.00  0.00     0.034 H 
ATOM     15  H10 <0> d           1.112  -1.468  -1.038  0.00  0.00     0.034 H 
ATOM     16  H11 <0> d           1.048   0.092  -1.945  0.00  0.00     0.034 H 
ENDROOT
BRANCH   1  17
ATOM     17  C1  <0> d          -0.513   2.325  -1.216  0.00  0.00    -0.062 C 
ATOM     18  H3  <0> d          -1.583   2.160  -1.341  0.00  0.00     0.029 H 
ATOM     19  H4  <0> d          -0.323   3.389  -1.078  0.00  0.00     0.029 H 
ATOM     20  H5  <0> d           0.015   1.973  -2.103  0.00  0.00     0.029 H 
ENDBRANCH   1  17
BRANCH   1  21
ATOM     21  C9  <0> d          -0.706   2.071   1.276  0.00  0.00    -0.062 C 
ATOM     22  H12 <0> d          -0.218   1.647   2.154  0.00  0.00     0.029 H 
ATOM     23  H13 <0> d          -0.635   3.159   1.311  0.00  0.00     0.029 H 
ATOM     24  H14 <0> d          -1.756   1.776   1.266  0.00  0.00     0.029 H 
ENDBRANCH   1  21
TORSDOF 2
