REMARK  1 active torsions:
REMARK  status: ('A' for Active; 'I' for Inactive)
REMARK    1  A    between atoms: C3_3  and  C5_6 
ROOT
ATOM      1  C5  <0> d          -1.206   2.714   0.023  0.00  0.00     0.044 C 
ATOM      2  C6  <0> d          -1.598   3.025  -1.361  0.00  0.00     0.064 C 
ATOM      3  N1  <0> d          -1.901   3.265  -2.430  0.00  0.00    -0.197 NA
ATOM      4  H4  <0> d          -2.039   2.237   0.539  0.00  0.00     0.063 H 
ATOM      5  H5  <0> d          -0.937   3.635   0.540  0.00  0.00     0.063 H 
ENDROOT
BRANCH   1   6
ATOM      6  C3  <0> d          -0.022   1.781   0.012  0.00  0.00    -0.005 A 
ATOM      7  C2  <0> d           1.300   2.079   0.001  0.00  0.00    -0.069 A 
ATOM      8  C1  <0> d           2.220   1.048  -0.013  0.00  0.00    -0.076 A 
ATOM      9  H2  <0> d           1.630   3.108   0.003  0.00  0.00     0.085 H 
ATOM     10  C4  <0> d           1.773  -0.232  -0.016  0.00  0.00    -0.044 A 
ATOM     11  H1  <0> d           3.279   1.258  -0.023  0.00  0.00     0.084 H 
ATOM     12  S1  <0> d           0.002  -0.004   0.002  0.00  0.00    -0.106 SA
ATOM     13  H3  <0> d           2.340  -1.151  -0.027  0.00  0.00     0.095 H 
ENDBRANCH   1   6
TORSDOF 1
