REMARK  7 active torsions:
REMARK  status: ('A' for Active; 'I' for Inactive)
REMARK    1  A    between atoms: C1_1  and  C2_2 
REMARK    2  A    between atoms: C2_2  and  O1_3 
REMARK    3  A    between atoms: O1_3  and  C3_4 
REMARK    4  A    between atoms: C3_4  and  C4_5 
REMARK    5  A    between atoms: C4_5  and  O2_6 
REMARK    6  A    between atoms: O2_6  and  C5_7 
REMARK    7  A    between atoms: C5_7  and  C6_8 
ROOT
ATOM      1  C6  <0> d          -1.433  -0.534   0.013  0.00  0.00     0.034 C 
ATOM      2  C7  <0> d          -1.413  -2.006   0.005  0.00  0.00     0.061 C 
ATOM      3  N1  <0> d          -1.398  -3.141  -0.002  0.00  0.00    -0.197 NA
ATOM      4  H12 <0> d          -1.948  -0.179   0.918  0.00  0.00     0.058 H 
ATOM      5  H13 <0> d          -1.965  -0.169  -0.878  0.00  0.00     0.058 H 
ENDROOT
BRANCH   1   6
ATOM      6  C5  <0> d           0.002  -0.004   0.002  0.00  0.00     0.031 C 
ATOM      7  H10 <0> d           0.517  -0.359  -0.903  0.00  0.00     0.075 H 
ATOM      8  H11 <0> d           0.534  -0.368   0.893  0.00  0.00     0.075 H 
BRANCH   6   9
ATOM      9  O2  <0> d          -0.017   1.425   0.010  0.00  0.00    -0.388 OA
BRANCH   9  10
ATOM     10  C4  <0> d           1.280   2.024   0.001  0.00  0.00     0.039 C 
ATOM     11  H8  <0> d           1.822   1.711  -0.904  0.00  0.00     0.077 H 
ATOM     12  H9  <0> d           1.839   1.702   0.892  0.00  0.00     0.077 H 
BRANCH  10  13
ATOM     13  C3  <0> d           1.139   3.547   0.010  0.00  0.00     0.039 C 
ATOM     14  H6  <0> d           0.504   3.862  -0.832  0.00  0.00     0.077 H 
ATOM     15  H7  <0> d           2.132   4.008  -0.087  0.00  0.00     0.077 H 
BRANCH  13  16
ATOM     16  O1  <0> d           0.539   3.962   1.239  0.00  0.00    -0.389 OA
BRANCH  16  17
ATOM     17  C2  <0> d           0.361   5.376   1.351  0.00  0.00     0.016 C 
ATOM     18  H4  <0> d          -0.289   5.729   0.537  0.00  0.00     0.073 H 
ATOM     19  H5  <0> d           1.339   5.875   1.282  0.00  0.00     0.073 H 
BRANCH  17  20
ATOM     20  C1  <0> d          -0.285   5.703   2.699  0.00  0.00    -0.056 C 
ATOM     21  H1  <0> d          -0.422   6.791   2.784  0.00  0.00     0.030 H 
ATOM     22  H2  <0> d           0.366   5.351   3.512  0.00  0.00     0.030 H 
ATOM     23  H3  <0> d          -1.262   5.204   2.768  0.00  0.00     0.030 H 
ENDBRANCH  17  20
ENDBRANCH  16  17
ENDBRANCH  13  16
ENDBRANCH  10  13
ENDBRANCH   9  10
ENDBRANCH   6   9
ENDBRANCH   1   6
TORSDOF 7
