REMARK  6 active torsions:
REMARK  status: ('A' for Active; 'I' for Inactive)
REMARK    1  A    between atoms: C1_1  and  C2_2 
REMARK    2  A    between atoms: C2_2  and  C3_3 
REMARK    3  A    between atoms: C3_3  and  C4_4 
REMARK    4  A    between atoms: C4_4  and  C5_5 
REMARK    5  A    between atoms: C5_5  and  O2_12 
REMARK    6  A    between atoms: C9_9  and  O1_11 
ROOT
ATOM      1  C5  <0> d           1.173   3.097   0.102  0.00  0.00     0.084 C 
ATOM      2  C6  <0> d           2.337   3.564   0.994  0.00  0.00    -0.034 C 
ATOM      3  C7  <0> d           3.117   2.296   1.401  0.00  0.00    -0.060 C 
ATOM      4  C8  <0> d           2.081   1.153   1.263  0.00  0.00    -0.038 C 
ATOM      5  C9  <0> d           1.286   1.562  -0.002  0.00  0.00     0.065 C 
ATOM      6  H1  <0> d           1.830   1.278  -0.903  0.00  0.00     0.087 H 
ATOM      7  H11 <0> d           1.950   4.064   1.882  0.00  0.00     0.037 H 
ATOM      8  H12 <0> d           2.987   4.239   0.438  0.00  0.00     0.037 H 
ATOM      9  H13 <0> d           3.463   2.375   2.431  0.00  0.00     0.033 H 
ATOM     10  H14 <0> d           3.957   2.133   0.726  0.00  0.00     0.033 H 
ATOM     11  H15 <0> d           1.428   1.116   2.135  0.00  0.00     0.036 H 
ATOM     12  H16 <0> d           2.580   0.195   1.113  0.00  0.00     0.036 H 
ENDROOT
BRANCH   1  13
ATOM     13  C4  <0> d           1.292   3.727  -1.287  0.00  0.00    -0.034 C 
ATOM     14  H9  <0> d           2.217   3.396  -1.758  0.00  0.00     0.037 H 
ATOM     15  H10 <0> d           0.443   3.421  -1.898  0.00  0.00     0.037 H 
BRANCH  13  16
ATOM     16  C3  <0> d           1.303   5.251  -1.156  0.00  0.00    -0.063 C 
ATOM     17  H7  <0> d           0.378   5.582  -0.685  0.00  0.00     0.033 H 
ATOM     18  H8  <0> d           2.152   5.557  -0.545  0.00  0.00     0.033 H 
BRANCH  16  19
ATOM     19  C2  <0> d           1.422   5.881  -2.545  0.00  0.00    -0.068 C 
ATOM     20  H5  <0> d           2.347   5.550  -3.017  0.00  0.00     0.032 H 
ATOM     21  H6  <0> d           0.573   5.575  -3.157  0.00  0.00     0.032 H 
BRANCH  19  22
ATOM     22  C1  <0> d           1.433   7.405  -2.415  0.00  0.00    -0.077 C 
ATOM     23  H2  <0> d           2.282   7.711  -1.803  0.00  0.00     0.027 H 
ATOM     24  H3  <0> d           1.518   7.854  -3.405  0.00  0.00     0.027 H 
ATOM     25  H4  <0> d           0.508   7.737  -1.944  0.00  0.00     0.027 H 
ENDBRANCH  19  22
ENDBRANCH  16  19
ENDBRANCH  13  16
ENDBRANCH   1  13
BRANCH   1  26
ATOM     26  O2  <0> d          -0.075   3.456   0.699  0.00  0.00    -0.387 OA
ATOM     27  H18 <0> d          -0.206   4.410   0.792  0.00  0.00     0.210 HD
ENDBRANCH   1  26
BRANCH   5  28
ATOM     28  O1  <0> d          -0.011   0.963   0.007  0.00  0.00    -0.393 OA
ATOM     29  H17 <0> d           0.002  -0.004   0.002  0.00  0.00     0.210 HD
ENDBRANCH   5  28
TORSDOF 6
