REMARK  5 active torsions:
REMARK  status: ('A' for Active; 'I' for Inactive)
REMARK    1  A    between atoms: C1_1  and  C2_2 
REMARK    2  A    between atoms: C3_3  and  C8_10 
REMARK    3  A    between atoms: C6_7  and  C7_8 
REMARK    4  A    between atoms: C7_8  and  O1_9 
REMARK    5  A    between atoms: C8_10  and  O2_11 
ROOT
ATOM      1  C2  <0> d           2.389   0.016  -0.020  0.00  0.00    -0.042 A 
ATOM      2  C3  <0> d           1.199  -0.695  -0.013  0.00  0.00    -0.011 A 
ATOM      3  C4  <0> d           0.002  -0.004   0.002  0.00  0.00     0.010 A 
ATOM      4  N1  <0> d          -0.016   1.315   0.009  0.00  0.00    -0.272 NA
ATOM      5  C5  <0> d           1.096   2.023   0.003  0.00  0.00     0.010 A 
ATOM      6  C6  <0> d           2.330   1.401  -0.013  0.00  0.00    -0.011 A 
ATOM      7  H4  <0> d          -0.929  -0.550   0.008  0.00  0.00     0.115 H 
ATOM      8  H5  <0> d           1.042   3.102   0.008  0.00  0.00     0.115 H 
ENDROOT
BRANCH   2   9
ATOM      9  C8  <0> d           1.210  -2.202  -0.021  0.00  0.00     0.042 C 
ATOM     10  H9  <0> d           1.719  -2.556  -0.917  0.00  0.00     0.081 H 
ATOM     11  H10 <0> d           1.735  -2.566   0.862  0.00  0.00     0.081 H 
BRANCH   9  12
ATOM     12  O2  <0> d          -0.133  -2.688  -0.011  0.00  0.00    -0.396 OA
ATOM     13  H11 <0> d          -0.202  -3.653  -0.016  0.00  0.00     0.209 HD
ENDBRANCH   9  12
ENDBRANCH   2   9
BRANCH   1  14
ATOM     14  C1  <0> d           3.715  -0.700  -0.036  0.00  0.00    -0.050 C 
ATOM     15  H1  <0> d           4.026  -0.867  -1.067  0.00  0.00     0.033 H 
ATOM     16  H2  <0> d           4.463  -0.091   0.474  0.00  0.00     0.033 H 
ATOM     17  H3  <0> d           3.617  -1.658   0.474  0.00  0.00     0.033 H 
ENDBRANCH   1  14
BRANCH   6  18
ATOM     18  C7  <0> d           3.596   2.219  -0.020  0.00  0.00     0.042 C 
ATOM     19  H6  <0> d           4.188   1.980   0.864  0.00  0.00     0.081 H 
ATOM     20  H7  <0> d           4.173   1.989  -0.916  0.00  0.00     0.081 H 
BRANCH  18  21
ATOM     21  O1  <0> d           3.266   3.609  -0.010  0.00  0.00    -0.396 OA
ATOM     22  H8  <0> d           4.034   4.196  -0.014  0.00  0.00     0.209 HD
ENDBRANCH  18  21
ENDBRANCH   6  18
TORSDOF 5
