REMARK  4 active torsions:
REMARK  status: ('A' for Active; 'I' for Inactive)
REMARK    1  A    between atoms: C1_1  and  C2_2 
REMARK    2  A    between atoms: C4_4  and  S1_9 
REMARK    3  A    between atoms: C6_6  and  C7_8 
REMARK    4  A    between atoms: S1_9  and  C8_10 
ROOT
ATOM      1  C2  <0> d          -4.680   0.483   1.894  0.00  0.00     0.050 A 
ATOM      2  C3  <0> d          -3.491   1.098   2.177  0.00  0.00    -0.038 A 
ATOM      3  C4  <0> d          -2.443   0.933   1.257  0.00  0.00     0.004 A 
ATOM      4  C5  <0> d          -2.739   0.149   0.131  0.00  0.00    -0.038 A 
ATOM      5  C6  <0> d          -3.998  -0.380   0.045  0.00  0.00     0.050 A 
ATOM      6  O1  <0> d          -4.835  -0.179   0.894  0.00  0.00    -0.320 OA
ATOM      7  H4  <0> d          -3.364   1.687   3.073  0.00  0.00     0.089 H 
ATOM      8  H5  <0> d          -2.001  -0.033  -0.636  0.00  0.00     0.089 H 
ENDROOT
BRANCH   3   9
ATOM      9  S1  <0> d          -0.860   1.669   1.497  0.00  0.00    -0.134 SA
BRANCH   9  10
ATOM     10  C8  <0> d          -0.013   1.086   0.008  0.00  0.00    -0.030 C 
ATOM     11  H9  <0> d           0.002  -0.004   0.002  0.00  0.00     0.042 H 
ATOM     12  H10 <0> d           1.010   1.463   0.000  0.00  0.00     0.042 H 
ATOM     13  H11 <0> d          -0.540   1.447  -0.875  0.00  0.00     0.042 H 
ENDBRANCH   9  10
ENDBRANCH   3   9
BRANCH   1  14
ATOM     14  C1  <0> d          -5.829   0.635   2.857  0.00  0.00    -0.031 C 
ATOM     15  H1  <0> d          -6.371   1.437   2.605  0.00  0.00     0.036 H 
ATOM     16  H2  <0> d          -6.458  -0.255   2.816  0.00  0.00     0.036 H 
ATOM     17  H3  <0> d          -5.442   0.761   3.868  0.00  0.00     0.036 H 
ENDBRANCH   1  14
BRANCH   5  18
ATOM     18  C7  <0> d          -4.354  -1.232  -1.146  0.00  0.00    -0.031 C 
ATOM     19  H6  <0> d          -5.388  -1.565  -1.058  0.00  0.00     0.036 H 
ATOM     20  H7  <0> d          -4.236  -0.648  -2.059  0.00  0.00     0.036 H 
ATOM     21  H8  <0> d          -3.695  -2.099  -1.182  0.00  0.00     0.036 H 
ENDBRANCH   5  18
TORSDOF 4
