REMARK  1 active torsions:
REMARK  status: ('A' for Active; 'I' for Inactive)
REMARK    1  A    between atoms: C1_1  and  C2_2 
ROOT
ATOM      1  C2  <0> d          -0.017   1.380   0.010  0.00  0.00    -0.036 A 
ATOM      2  C3  <0> d           0.002  -0.004   0.002  0.00  0.00    -0.061 A 
ATOM      3  C4  <0> d           1.215  -0.668  -0.013  0.00  0.00    -0.020 A 
ATOM      4  N1  <0> d           2.356  -0.005  -0.021  0.00  0.00    -0.343 N 
ATOM      5  C5  <0> d           2.395   1.316  -0.014  0.00  0.00     0.200 A 
ATOM      6  C6  <0> d           1.206   2.061   0.002  0.00  0.00     0.104 A 
ATOM      7  C7  <0> d           1.243   3.493   0.009  0.00  0.00     0.104 C 
ATOM      8  N2  <0> d           1.272   4.628   0.014  0.00  0.00    -0.191 NA
ATOM      9  O1  <0> d           3.590   1.954  -0.023  0.00  0.00    -0.171 OA
ATOM     10  H4  <0> d          -0.923  -0.561   0.007  0.00  0.00     0.086 H 
ATOM     11  H5  <0> d           1.229  -1.748  -0.019  0.00  0.00     0.111 H 
ATOM     12  H6  <0> d           3.310  -0.553  -0.033  0.00  0.00     0.167 HD
ENDROOT
BRANCH   1  13
ATOM     13  C1  <0> d          -1.321   2.135   0.020  0.00  0.00    -0.050 C 
ATOM     14  H1  <0> d          -2.158   1.420   0.025  0.00  0.00     0.033 H 
ATOM     15  H2  <0> d          -1.385   2.768  -0.877  0.00  0.00     0.033 H 
ATOM     16  H3  <0> d          -1.372   2.766   0.919  0.00  0.00     0.033 H 
ENDBRANCH   1  13
TORSDOF 1
