REMARK  1 active torsions:
REMARK  status: ('A' for Active; 'I' for Inactive)
REMARK    1  A    between atoms: C1_1  and  C2_2 
ROOT
ATOM      1  C2  <0> d           1.133  -0.683  -0.012  0.00  0.00     0.032 A 
ATOM      2  C3  <0> d           2.350  -0.029  -0.021  0.00  0.00    -0.038 A 
ATOM      3  C4  <0> d           2.372   1.359  -0.014  0.00  0.00     0.037 A 
ATOM      4  C5  <0> d           1.161   2.038   0.002  0.00  0.00    -0.045 A 
ATOM      5  C6  <0> d          -0.016   1.315   0.009  0.00  0.00     0.004 A 
ATOM      6  N1  <0> d           0.002  -0.004   0.002  0.00  0.00    -0.266 NA
ATOM      7 Cl1  <0> d           3.877   2.224  -0.023  0.00  0.00    -0.084 Cl
ATOM      8  H4  <0> d           3.272  -0.591  -0.033  0.00  0.00     0.089 H 
ATOM      9  H5  <0> d           1.140   3.118   0.007  0.00  0.00     0.088 H 
ATOM     10  H6  <0> d          -0.962   1.836   0.017  0.00  0.00     0.114 H 
ENDROOT
BRANCH   1  11
ATOM     11  C1  <0> d           1.097  -2.189  -0.020  0.00  0.00    -0.035 C 
ATOM     12  H1  <0> d           1.078  -2.547  -1.050  0.00  0.00     0.035 H 
ATOM     13  H2  <0> d           1.982  -2.577   0.483  0.00  0.00     0.035 H 
ATOM     14  H3  <0> d           0.203  -2.534   0.500  0.00  0.00     0.035 H 
ENDBRANCH   1  11
TORSDOF 1
