REMARK  7 active torsions:
REMARK  status: ('A' for Active; 'I' for Inactive)
REMARK    1  A    between atoms: C1_1  and  C2_2 
REMARK    2  A    between atoms: C2_2  and  C3_3 
REMARK    3  A    between atoms: C3_3  and  C4_4 
REMARK    4  A    between atoms: C4_4  and  C5_6 
REMARK    5  A    between atoms: C5_6  and  C6_7 
REMARK    6  A    between atoms: C5_6  and  C7_8 
REMARK    7  A    between atoms: C5_6  and  C8_9 
ROOT
ATOM      1  C5  <0> d           1.280   1.975   0.000  0.00  0.00     0.009 C 
ENDROOT
BRANCH   1   2
ATOM      2  C4  <0> d          -0.014   1.203   0.009  0.00  0.00     0.134 C 
ATOM      3  O1  <0> d           0.002  -0.004   0.002  0.00  0.00    -0.297 OA
BRANCH   2   4
ATOM      4  C3  <0> d          -1.329   1.939   0.019  0.00  0.00    -0.009 C 
ATOM      5  H6  <0> d          -1.386   2.509   0.839  0.00  0.00     0.044 H 
ATOM      6  H7  <0> d          -1.400   2.570  -0.867  0.00  0.00     0.044 H 
BRANCH   4   7
ATOM      7  C2  <0> d          -2.479   0.929   0.019  0.00  0.00    -0.062 C 
ATOM      8  H4  <0> d          -2.417   0.308  -0.875  0.00  0.00     0.033 H 
ATOM      9  H5  <0> d          -2.408   0.298   0.905  0.00  0.00     0.033 H 
BRANCH   7  10
ATOM     10  C1  <0> d          -3.814   1.676   0.029  0.00  0.00    -0.076 C 
ATOM     11  H1  <0> d          -3.876   2.297   0.923  0.00  0.00     0.027 H 
ATOM     12  H2  <0> d          -3.885   2.307  -0.857  0.00  0.00     0.027 H 
ATOM     13  H3  <0> d          -4.633   0.957   0.029  0.00  0.00     0.027 H 
ENDBRANCH   7  10
ENDBRANCH   4   7
ENDBRANCH   2   4
ENDBRANCH   1   2
BRANCH   1  14
ATOM     14  C6  <0> d           2.457   0.996  -0.016  0.00  0.00    -0.063 C 
ATOM     15  H8  <0> d           2.399   0.374  -0.909  0.00  0.00     0.029 H 
ATOM     16  H9  <0> d           3.393   1.554  -0.022  0.00  0.00     0.029 H 
ATOM     17  H10 <0> d           2.416   0.364   0.871  0.00  0.00     0.029 H 
ENDBRANCH   1  14
BRANCH   1  18
ATOM     18  C7  <0> d           1.338   2.862  -1.245  0.00  0.00    -0.063 C 
ATOM     19  H11 <0> d           0.500   3.559  -1.233  0.00  0.00     0.029 H 
ATOM     20  H12 <0> d           2.274   3.420  -1.251  0.00  0.00     0.029 H 
ATOM     21  H13 <0> d           1.280   2.239  -2.138  0.00  0.00     0.029 H 
ENDBRANCH   1  18
BRANCH   1  22
ATOM     22  C8  <0> d           1.361   2.849   1.254  0.00  0.00    -0.063 C 
ATOM     23  H14 <0> d           1.321   2.216   2.141  0.00  0.00     0.029 H 
ATOM     24  H15 <0> d           2.298   3.406   1.248  0.00  0.00     0.029 H 
ATOM     25  H16 <0> d           0.523   3.546   1.265  0.00  0.00     0.029 H 
ENDBRANCH   1  22
TORSDOF 7
