REMARK  2 active torsions:
REMARK  status: ('A' for Active; 'I' for Inactive)
REMARK    1  A    between atoms: C1_1  and  C2_2 
REMARK    2  A    between atoms: C7_7  and  N1_8 
ROOT
ATOM      1  C2  <0> d           1.185   2.101   0.002  0.00  0.00    -0.015 A 
ATOM      2  C3  <0> d          -0.017   1.392   0.010  0.00  0.00     0.052 A 
ATOM      3  C4  <0> d           0.002  -0.004   0.002  0.00  0.00    -0.062 A 
ATOM      4  C5  <0> d           1.206  -0.678  -0.013  0.00  0.00    -0.079 A 
ATOM      5  C6  <0> d           2.397   0.025  -0.021  0.00  0.00    -0.057 A 
ATOM      6  C7  <0> d           2.389   1.415  -0.013  0.00  0.00     0.033 A 
ATOM      7  C8  <0> d          -1.265   2.094   0.019  0.00  0.00     0.100 C 
ATOM      8  N2  <0> d          -2.256   2.650   0.027  0.00  0.00    -0.191 NA
ATOM      9  H4  <0> d          -0.926  -0.557   0.008  0.00  0.00     0.085 H 
ATOM     10  H5  <0> d           1.219  -1.758  -0.019  0.00  0.00     0.083 H 
ATOM     11  H6  <0> d           3.336  -0.508  -0.033  0.00  0.00     0.086 H 
ENDROOT
BRANCH   1  12
ATOM     12  C1  <0> d           1.173   3.608   0.010  0.00  0.00    -0.048 C 
ATOM     13  H1  <0> d           1.180   3.966   1.039  0.00  0.00     0.033 H 
ATOM     14  H2  <0> d           2.056   3.981  -0.510  0.00  0.00     0.033 H 
ATOM     15  H3  <0> d           0.276   3.967  -0.494  0.00  0.00     0.033 H 
ENDBRANCH   1  12
BRANCH   6  16
ATOM     16  N1  <0> d           3.595   2.120  -0.019  0.00  0.00    -0.399 N 
ATOM     17  H7  <0> d           4.438   1.640  -0.030  0.00  0.00     0.156 HD
ATOM     18  H8  <0> d           3.590   3.090  -0.014  0.00  0.00     0.156 HD
ENDBRANCH   6  16
TORSDOF 2
