REMARK  8 active torsions:
REMARK  status: ('A' for Active; 'I' for Inactive)
REMARK    1  A    between atoms: C1_1  and  C2_2 
REMARK    2  A    between atoms: C2_2  and  C3_3 
REMARK    3  A    between atoms: C3_3  and  C4_5 
REMARK    4  A    between atoms: C3_3  and  C5_6 
REMARK    5  A    between atoms: C5_6  and  C6_8 
REMARK    6  A    between atoms: C5_6  and  C7_9 
REMARK    7  A    between atoms: C7_9  and  C8_11 
REMARK    8  A    between atoms: C7_9  and  O1_12 
ROOT
ATOM      1  C5  <0> d          -0.111   0.998  -2.487  0.00  0.00    -0.030 C 
ATOM      2  H2  <0> d           0.934   1.301  -2.539  0.00  0.00     0.043 H 
ENDROOT
BRANCH   1   3
ATOM      3  C3  <0> d          -0.753   1.593  -1.232  0.00  0.00    -0.052 C 
ATOM      4  H1  <0> d          -1.798   1.290  -1.179  0.00  0.00     0.040 H 
BRANCH   3   5
ATOM      5  C2  <0> d          -0.013   1.086   0.008  0.00  0.00    -0.065 C 
ATOM      6  H7  <0> d           0.002  -0.004   0.002  0.00  0.00     0.033 H 
ATOM      7  H8  <0> d           1.010   1.463   0.000  0.00  0.00     0.033 H 
BRANCH   5   8
ATOM      8  C1  <0> d          -0.729   1.579   1.267  0.00  0.00    -0.076 C 
ATOM      9  H4  <0> d          -0.202   1.218   2.150  0.00  0.00     0.027 H 
ATOM     10  H5  <0> d          -0.744   2.669   1.273  0.00  0.00     0.027 H 
ATOM     11  H6  <0> d          -1.751   1.202   1.275  0.00  0.00     0.027 H 
ENDBRANCH   5   8
ENDBRANCH   3   5
BRANCH   3  12
ATOM     12  C4  <0> d          -0.666   3.119  -1.289  0.00  0.00    -0.072 C 
ATOM     13  H9  <0> d          -1.123   3.543  -0.394  0.00  0.00     0.028 H 
ATOM     14  H10 <0> d           0.380   3.422  -1.341  0.00  0.00     0.028 H 
ATOM     15  H11 <0> d          -1.193   3.480  -2.172  0.00  0.00     0.028 H 
ENDBRANCH   3  12
ENDBRANCH   1   3
BRANCH   1  16
ATOM     16  C6  <0> d          -0.198  -0.528  -2.430  0.00  0.00    -0.070 C 
ATOM     17  H12 <0> d           0.259  -0.952  -3.324  0.00  0.00     0.028 H 
ATOM     18  H13 <0> d           0.329  -0.889  -1.547  0.00  0.00     0.028 H 
ATOM     19  H14 <0> d          -1.244  -0.831  -2.378  0.00  0.00     0.028 H 
ENDBRANCH   1  16
BRANCH   1  20
ATOM     20  C7  <0> d          -0.851   1.505  -3.727  0.00  0.00     0.035 C 
ATOM     21  H3  <0> d          -0.790   2.592  -3.767  0.00  0.00     0.082 H 
BRANCH  20  22
ATOM     22  C8  <0> d          -0.210   0.910  -4.982  0.00  0.00    -0.052 C 
ATOM     23  H15 <0> d          -0.272  -0.177  -4.941  0.00  0.00     0.030 H 
ATOM     24  H16 <0> d          -0.737   1.272  -5.865  0.00  0.00     0.030 H 
ATOM     25  H17 <0> d           0.836   1.213  -5.034  0.00  0.00     0.030 H 
ENDBRANCH  20  22
BRANCH  20  26
ATOM     26  O1  <0> d          -2.222   1.108  -3.658  0.00  0.00    -0.396 OA
ATOM     27  H18 <0> d          -2.353   0.151  -3.619  0.00  0.00     0.210 HD
ENDBRANCH  20  26
ENDBRANCH   1  20
TORSDOF 8
