REMARK  3 active torsions:
REMARK  status: ('A' for Active; 'I' for Inactive)
REMARK    1  A    between atoms: C1_1  and  O1_2 
REMARK    2  A    between atoms: O1_2  and  C2_3 
REMARK    3  A    between atoms: C2_3  and  C3_5 
ROOT
ATOM      1  C3  <0> d          -0.018   1.467   0.010  0.00  0.00     0.104 A 
ATOM      2  C4  <0> d           1.190   2.137   0.002  0.00  0.00    -0.004 A 
ATOM      3  N1  <0> d           2.345   1.452  -0.013  0.00  0.00    -0.374 N 
ATOM      4  H1  <0> d           3.180   1.946  -0.018  0.00  0.00     0.164 HD
ATOM      5  C5  <0> d           2.387   0.097  -0.020  0.00  0.00    -0.020 A 
ATOM      6  C6  <0> d           1.263  -0.649  -0.013  0.00  0.00    -0.019 A 
ATOM      7  C7  <0> d           0.002  -0.004   0.002  0.00  0.00     0.190 A 
ATOM      8  O3  <0> d          -1.035  -0.648   0.008  0.00  0.00    -0.287 OA
ATOM      9  H5  <0> d           1.205   3.216   0.008  0.00  0.00     0.113 H 
ATOM     10  H6  <0> d           3.346  -0.399  -0.032  0.00  0.00     0.111 H 
ATOM     11  H7  <0> d           1.325  -1.727  -0.020  0.00  0.00     0.091 H 
ENDROOT
BRANCH   1  12
ATOM     12  C2  <0> d          -1.291   2.205   0.020  0.00  0.00     0.298 C 
ATOM     13  O2  <0> d          -2.344   1.600   0.022  0.00  0.00    -0.259 OA
BRANCH  12  14
ATOM     14  O1  <0> d          -1.288   3.553   0.028  0.00  0.00    -0.322 OA
BRANCH  14  15
ATOM     15  C1  <0> d          -2.580   4.215   0.037  0.00  0.00     0.013 C 
ATOM     16  H2  <0> d          -3.142   3.928  -0.852  0.00  0.00     0.067 H 
ATOM     17  H3  <0> d          -3.134   3.918   0.928  0.00  0.00     0.067 H 
ATOM     18  H4  <0> d          -2.436   5.295   0.042  0.00  0.00     0.067 H 
ENDBRANCH  14  15
ENDBRANCH  12  14
ENDBRANCH   1  12
TORSDOF 3
