REMARK  3 active torsions:
REMARK  status: ('A' for Active; 'I' for Inactive)
REMARK    1  A    between atoms: C1_1  and  O1_2 
REMARK    2  A    between atoms: O1_2  and  C2_3 
REMARK    3  A    between atoms: C2_3  and  C3_5 
ROOT
ATOM      1  C3  <0> d          -1.253   1.909   0.018  0.00  0.00     0.115 A 
ATOM      2  C4  <0> d          -1.234   3.303   0.032  0.00  0.00    -0.059 A 
ATOM      3  C5  <0> d           0.001   3.958   0.023  0.00  0.00    -0.060 A 
ATOM      4  C6  <0> d           1.149   3.242   0.008  0.00  0.00     0.023 A 
ATOM      5  O3  <0> d           1.139   1.903   0.001  0.00  0.00    -0.287 OA
ATOM      6  C7  <0> d          -0.014   1.214   0.009  0.00  0.00     0.303 A 
ATOM      7  O4  <0> d           0.002  -0.004   0.002  0.00  0.00    -0.259 OA
ATOM      8  H4  <0> d          -2.156   3.866   0.044  0.00  0.00     0.085 H 
ATOM      9  H5  <0> d           0.039   5.038   0.028  0.00  0.00     0.086 H 
ATOM     10  H6  <0> d           2.096   3.762   0.002  0.00  0.00     0.123 H 
ENDROOT
BRANCH   1  11
ATOM     11  C2  <0> d          -2.526   1.176   0.021  0.00  0.00     0.299 C 
ATOM     12  O2  <0> d          -2.527  -0.040   0.015  0.00  0.00    -0.259 OA
BRANCH  11  13
ATOM     13  O1  <0> d          -3.693   1.851   0.030  0.00  0.00    -0.322 OA
BRANCH  13  14
ATOM     14  C1  <0> d          -4.911   1.061   0.032  0.00  0.00     0.013 C 
ATOM     15  H1  <0> d          -4.941   0.436  -0.861  0.00  0.00     0.067 H 
ATOM     16  H2  <0> d          -4.932   0.427   0.919  0.00  0.00     0.067 H 
ATOM     17  H3  <0> d          -5.775   1.725   0.040  0.00  0.00     0.067 H 
ENDBRANCH  13  14
ENDBRANCH  11  13
ENDBRANCH   1  11
TORSDOF 3
