REMARK  2 active torsions:
REMARK  status: ('A' for Active; 'I' for Inactive)
REMARK    1  A    between atoms: C1_1  and  C2_2 
REMARK    2  A    between atoms: C4_5  and  C6_10 
ROOT
ATOM      1  C2  <0> d           1.415   1.839  -0.002  0.00  0.00     0.029 C 
ATOM      2  H1  <0> d           1.489   2.776  -0.554  0.00  0.00     0.055 H 
ATOM      3  C3  <0> d           2.176   0.709  -0.735  0.00  0.00    -0.029 C 
ATOM      4  C4  <0> d           1.279  -0.517  -0.468  0.00  0.00     0.045 C 
ATOM      5  H2  <0> d           1.730  -1.151   0.295  0.00  0.00     0.083 H 
ATOM      6  O1  <0> d           0.002  -0.004   0.002  0.00  0.00    -0.316 OA
ATOM      7  C5  <0> d          -0.016   1.336   0.009  0.00  0.00     0.263 C 
ATOM      8  O2  <0> d          -1.007   2.027   0.018  0.00  0.00    -0.265 OA
ATOM      9  H6  <0> d           3.167   0.566  -0.304  0.00  0.00     0.038 H 
ATOM     10  H7  <0> d           2.242   0.916  -1.803  0.00  0.00     0.038 H 
ENDROOT
BRANCH   1  11
ATOM     11  C1  <0> d           1.940   2.008   1.426  0.00  0.00    -0.064 C 
ATOM     12  H3  <0> d           1.884   1.053   1.948  0.00  0.00     0.028 H 
ATOM     13  H4  <0> d           2.976   2.345   1.394  0.00  0.00     0.028 H 
ATOM     14  H5  <0> d           1.333   2.745   1.951  0.00  0.00     0.028 H 
ENDBRANCH   1  11
BRANCH   4  15
ATOM     15  C6  <0> d           1.080  -1.312  -1.760  0.00  0.00    -0.052 C 
ATOM     16  H8  <0> d           0.628  -0.670  -2.516  0.00  0.00     0.030 H 
ATOM     17  H9  <0> d           2.045  -1.670  -2.118  0.00  0.00     0.030 H 
ATOM     18  H10 <0> d           0.426  -2.162  -1.566  0.00  0.00     0.030 H 
ENDBRANCH   4  15
TORSDOF 2
