REMARK  5 active torsions:
REMARK  status: ('A' for Active; 'I' for Inactive)
REMARK    1  A    between atoms: C1_1  and  C2_2 
REMARK    2  A    between atoms: C2_2  and  O1_3 
REMARK    3  A    between atoms: O1_3  and  C3_4 
REMARK    4  A    between atoms: C3_4  and  C4_6 
REMARK    5  A    between atoms: C6_9  and  N2_11 
ROOT
ATOM      1  C3  <0> d          -4.800   1.881   0.036  0.00  0.00     0.314 C 
ATOM      2  O2  <0> d          -5.536   2.849   0.045  0.00  0.00    -0.257 OA
ENDROOT
BRANCH   1   3
ATOM      3  O1  <0> d          -5.321   0.638   0.031  0.00  0.00    -0.317 OA
BRANCH   3   4
ATOM      4  C2  <0> d          -6.769   0.530   0.037  0.00  0.00     0.026 C 
ATOM      5  H4  <0> d          -7.178   1.025  -0.856  0.00  0.00     0.074 H 
ATOM      6  H5  <0> d          -7.169   1.015   0.940  0.00  0.00     0.074 H 
BRANCH   4   7
ATOM      7  C1  <0> d          -7.171  -0.946   0.030  0.00  0.00    -0.056 C 
ATOM      8  H1  <0> d          -8.268  -1.028   0.035  0.00  0.00     0.030 H 
ATOM      9  H2  <0> d          -6.762  -1.441   0.924  0.00  0.00     0.030 H 
ATOM     10  H3  <0> d          -6.771  -1.431  -0.873  0.00  0.00     0.030 H 
ENDBRANCH   4   7
ENDBRANCH   3   4
ENDBRANCH   1   3
BRANCH   1  11
ATOM     11  C4  <0> d          -3.340   2.067   0.030  0.00  0.00     0.158 A 
ATOM     12  N1  <0> d          -2.398   1.081   0.019  0.00  0.00    -0.201 NA
ATOM     13  C6  <0> d          -1.216   1.640   0.017  0.00  0.00     0.244 A 
ATOM     14  O3  <0> d          -1.362   2.975   0.030  0.00  0.00    -0.288 OA
ATOM     15  C5  <0> d          -2.678   3.255   0.034  0.00  0.00     0.056 A 
ATOM     16  H6  <0> d          -3.124   4.238   0.042  0.00  0.00     0.127 H 
BRANCH  13  17
ATOM     17  N2  <0> d          -0.011   0.966   0.007  0.00  0.00    -0.363 N 
ATOM     18  H7  <0> d           0.004  -0.134  -0.004  0.00  0.00     0.159 HD
ATOM     19  H8  <0> d           0.934   1.529   0.011  0.00  0.00     0.159 HD
ENDBRANCH  13  17
ENDBRANCH   1  11
TORSDOF 5
