REMARK  2 active torsions:
REMARK  status: ('A' for Active; 'I' for Inactive)
REMARK    1  A    between atoms: C4_4  and  C7_7 
REMARK    2  A    between atoms: C9_10  and  N3_13 
ROOT
ATOM      1  C1  <0> d          -7.605   1.697   0.047  0.00  0.00    -0.083 A 
ATOM      2  C2  <0> d          -7.031   2.956   0.052  0.00  0.00    -0.082 A 
ATOM      3  C3  <0> d          -5.658   3.091   0.046  0.00  0.00    -0.071 A 
ATOM      4  C4  <0> d          -4.848   1.954   0.036  0.00  0.00    -0.007 A 
ATOM      5  C5  <0> d          -5.434   0.687   0.025  0.00  0.00    -0.071 A 
ATOM      6  C6  <0> d          -6.808   0.566   0.037  0.00  0.00    -0.082 A 
ATOM      7  H2  <0> d          -8.680   1.597   0.052  0.00  0.00     0.083 H 
ATOM      8  H3  <0> d          -7.659   3.834   0.061  0.00  0.00     0.083 H 
ATOM      9  H4  <0> d          -5.211   4.074   0.051  0.00  0.00     0.084 H 
ATOM     10  H5  <0> d          -4.813  -0.196   0.013  0.00  0.00     0.084 H 
ATOM     11  H6  <0> d          -7.263  -0.413   0.033  0.00  0.00     0.083 H 
ENDROOT
BRANCH   4  12
ATOM     12  C7  <0> d          -3.376   2.091   0.030  0.00  0.00     0.077 A 
ATOM     13  N2  <0> d          -2.450   1.063   0.019  0.00  0.00    -0.188 N 
ATOM     14  C9  <0> d          -1.218   1.641   0.017  0.00  0.00     0.698 A 
ATOM     15  H1  <0> d          -2.648   0.083   0.015  0.00  0.00     0.184 HD
ATOM     16  N1  <0> d          -1.365   2.946   0.030  0.00  0.00    -0.075 NA
ATOM     17  C8  <0> d          -2.669   3.251   0.033  0.00  0.00     0.048 A 
ATOM     18  H7  <0> d          -3.086   4.248   0.041  0.00  0.00     0.119 H 
BRANCH  14  19
ATOM     19  N3  <0> d          -0.011   0.966   0.007  0.00  0.00    -0.233 N 
ATOM     20  H8  <0> d           0.002  -0.004   0.002  0.00  0.00     0.174 HD
ATOM     21  H9  <0> d           0.822   1.462   0.002  0.00  0.00     0.174 HD
ENDBRANCH  14  19
ENDBRANCH   4  12
TORSDOF 2
