REMARK  5 active torsions:
REMARK  status: ('A' for Active; 'I' for Inactive)
REMARK    1  A    between atoms: C1_1  and  C2_3 
REMARK    2  A    between atoms: C1_1  and  C4_9 
REMARK    3  A    between atoms: C1_1  and  O4_12 
REMARK    4  A    between atoms: C2_3  and  C3_5 
REMARK    5  A    between atoms: C2_3  and  O2_8 
REMARK       I    between atoms: C3_5  and  N1_7 
REMARK       I    between atoms: C4_9  and  N2_11 
ROOT
ATOM      1  C1  <0> d          -0.019   1.526   0.010  0.00  0.00     0.145 C 
ATOM      2  H1  <0> d           1.004   1.903   0.003  0.00  0.00     0.102 H 
ENDROOT
BRANCH   1   3
ATOM      3  C2  <0> d           0.002  -0.004   0.002  0.00  0.00     0.145 C 
ATOM      4  H2  <0> d           0.604  -0.364   0.836  0.00  0.00     0.102 H 
BRANCH   3   5
ATOM      5  C3  <0> d           0.597  -0.491  -1.294  0.00  0.00     0.247 C 
ATOM      6  O1  <0> d          -0.086  -1.117  -2.077  0.00  0.00    -0.271 OA
ATOM      7  N1  <0> d           1.888  -0.232  -1.583  0.00  0.00    -0.368 N 
ATOM      8  H3  <0> d           2.434   0.269  -0.956  0.00  0.00     0.159 HD
ATOM      9  H4  <0> d           2.271  -0.545  -2.417  0.00  0.00     0.159 HD
ENDBRANCH   3   5
BRANCH   3  10
ATOM     10  O2  <0> d          -1.332  -0.499   0.130  0.00  0.00    -0.383 OA
ATOM     11  H5  <0> d          -1.926  -0.218  -0.580  0.00  0.00     0.210 HD
ENDBRANCH   3  10
ENDBRANCH   1   3
BRANCH   1  12
ATOM     12  C4  <0> d          -0.724   2.012   1.250  0.00  0.00     0.247 C 
ATOM     13  O3  <0> d          -1.770   2.619   1.155  0.00  0.00    -0.271 OA
ATOM     14  N2  <0> d          -0.193   1.772   2.466  0.00  0.00    -0.368 N 
ATOM     15  H6  <0> d           0.643   1.286   2.542  0.00  0.00     0.159 HD
ATOM     16  H7  <0> d          -0.647   2.085   3.264  0.00  0.00     0.159 HD
ENDBRANCH   1  12
BRANCH   1  17
ATOM     17  O4  <0> d          -0.710   1.999  -1.147  0.00  0.00    -0.383 OA
ATOM     18  H8  <0> d          -1.628   1.702  -1.206  0.00  0.00     0.210 HD
ENDBRANCH   1  17
TORSDOF 5
