REMARK  4 active torsions:
REMARK  status: ('A' for Active; 'I' for Inactive)
REMARK    1  A    between atoms: C1_1  and  N1_2 
REMARK    2  A    between atoms: N1_2  and  C2_3 
REMARK    3  A    between atoms: C6_7  and  O1_9 
REMARK    4  A    between atoms: O1_9  and  C7_10 
ROOT
ATOM      1  C2  <0> d           3.490   1.922  -0.021  0.00  0.00     0.125 A 
ATOM      2  C3  <0> d           3.606   3.308  -0.014  0.00  0.00    -0.039 A 
ATOM      3  C4  <0> d           2.459   4.082   0.001  0.00  0.00    -0.075 A 
ATOM      4  C5  <0> d           1.228   3.444   0.003  0.00  0.00    -0.032 A 
ATOM      5  C6  <0> d           1.183   2.057   0.002  0.00  0.00     0.165 A 
ATOM      6  N2  <0> d           2.298   1.344  -0.013  0.00  0.00    -0.208 NA
ATOM      7  H5  <0> d           4.580   3.774  -0.021  0.00  0.00     0.089 H 
ATOM      8  H6  <0> d           2.521   5.160   0.006  0.00  0.00     0.083 H 
ATOM      9  H7  <0> d           0.314   4.020   0.010  0.00  0.00     0.090 H 
ENDROOT
BRANCH   1  10
ATOM     10  N1  <0> d           4.636   1.136  -0.036  0.00  0.00    -0.379 N 
ATOM     11  H4  <0> d           4.550   0.039  -0.041  0.00  0.00     0.160 HD
BRANCH  10  12
ATOM     12  C1  <0> d           5.958   1.767  -0.045  0.00  0.00    -0.020 C 
ATOM     13  H1  <0> d           6.736   0.990  -0.057  0.00  0.00     0.056 H 
ATOM     14  H2  <0> d           6.074   2.389   0.855  0.00  0.00     0.056 H 
ATOM     15  H3  <0> d           6.056   2.398  -0.941  0.00  0.00     0.056 H 
ENDBRANCH  10  12
ENDBRANCH   1  10
BRANCH   5  16
ATOM     16  O1  <0> d          -0.017   1.425   0.010  0.00  0.00    -0.339 OA
BRANCH  16  17
ATOM     17  C7  <0> d           0.002  -0.004   0.002  0.00  0.00     0.012 C 
ATOM     18  H8  <0> d          -1.030  -0.385   0.010  0.00  0.00     0.067 H 
ATOM     19  H9  <0> d           0.534  -0.368   0.893  0.00  0.00     0.067 H 
ATOM     20  H10 <0> d           0.517  -0.359  -0.903  0.00  0.00     0.067 H 
ENDBRANCH  16  17
ENDBRANCH   5  16
TORSDOF 4
