REMARK  0 active torsions:
REMARK  status: ('A' for Active; 'I' for Inactive)
ROOT
ATOM      1  C1  <0> d          -0.016   1.318   0.009  0.00  0.00    -0.075 C 
ATOM      2  C2  <0> d           0.002  -0.004   0.002  0.00  0.00    -0.075 C 
ATOM      3  C3  <0> d           1.476  -0.419  -0.014  0.00  0.00     0.072 C 
ATOM      4  H1  <0> d           1.688  -1.425   0.348  0.00  0.00     0.091 H 
ATOM      5  C4  <0> d           1.976  -0.084  -1.454  0.00  0.00     0.076 C 
ATOM      6  H2  <0> d           2.986  -0.460  -1.613  0.00  0.00     0.069 H 
ATOM      7  C5  <0> d           1.954   1.468  -1.446  0.00  0.00     0.076 C 
ATOM      8  H3  <0> d           2.955   1.873  -1.601  0.00  0.00     0.069 H 
ATOM      9  C6  <0> d           1.446   1.773  -0.002  0.00  0.00     0.072 C 
ATOM     10  H4  <0> d           1.631   2.780   0.371  0.00  0.00     0.091 H 
ATOM     11  O1  <0> d           2.073   0.681   0.752  0.00  0.00    -0.370 OA
ATOM     12  C7  <0> d           1.017   1.987  -2.455  0.00  0.00     0.068 C 
ATOM     13  N1  <0> d           0.294   2.388  -3.234  0.00  0.00    -0.197 NA
ATOM     14  C8  <0> d           1.052  -0.618  -2.470  0.00  0.00     0.068 C 
ATOM     15  N2  <0> d           0.340  -1.030  -3.253  0.00  0.00    -0.197 NA
ATOM     16  H5  <0> d          -0.890   1.952   0.017  0.00  0.00     0.080 H 
ATOM     17  H6  <0> d          -0.854  -0.662   0.006  0.00  0.00     0.080 H 
ENDROOT
TORSDOF 0
