REMARK  1 active torsions:
REMARK  status: ('A' for Active; 'I' for Inactive)
REMARK    1  A    between atoms: C1_1  and  C3_4 
REMARK       I    between atoms: C3_4  and  N2_6 
ROOT
ATOM      1  C1  <0> d          -1.330   1.944   0.019  0.00  0.00     0.088 C 
ATOM      2  C2  <0> d          -2.435   0.973   0.019  0.00  0.00     0.068 C 
ATOM      3  N1  <0> d          -3.289   0.223   0.019  0.00  0.00    -0.197 NA
ATOM      4  H1  <0> d          -1.392   2.565   0.913  0.00  0.00     0.069 H 
ATOM      5  H2  <0> d          -1.400   2.575  -0.867  0.00  0.00     0.069 H 
ENDROOT
BRANCH   1   6
ATOM      6  C3  <0> d          -0.014   1.209   0.009  0.00  0.00     0.228 C 
ATOM      7  O1  <0> d           0.002  -0.004   0.002  0.00  0.00    -0.273 OA
ATOM      8  N2  <0> d           1.143   1.898   0.001  0.00  0.00    -0.369 N 
ATOM      9  H3  <0> d           1.990   1.425  -0.009  0.00  0.00     0.159 HD
ATOM     10  H4  <0> d           1.130   2.868   0.007  0.00  0.00     0.159 HD
ENDBRANCH   1   6
TORSDOF 1
