REMARK  0 active torsions:
REMARK  status: ('A' for Active; 'I' for Inactive)
ROOT
ATOM      1  C1  <0> d           1.174   1.794   0.001  0.00  0.00    -0.079 A 
ATOM      2  C2  <0> d          -0.013   1.076   0.008  0.00  0.00    -0.066 A 
ATOM      3  C3  <0> d          -1.214   1.759   0.017  0.00  0.00     0.003 A 
ATOM      4  N1  <0> d          -1.240   3.078   0.030  0.00  0.00    -0.254 NA
ATOM      5  C4  <0> d          -0.132   3.793   0.024  0.00  0.00     0.102 A 
ATOM      6  C5  <0> d           1.107   3.178   0.009  0.00  0.00    -0.048 A 
ATOM      7 Br1  <0> d          -0.238   5.681   0.034  0.00  0.00    -0.029 Br
ATOM      8  H1  <0> d           2.127   1.286  -0.011  0.00  0.00     0.083 H 
ATOM      9  H2  <0> d           0.002  -0.004   0.002  0.00  0.00     0.085 H 
ATOM     10  H3  <0> d          -2.142   1.206   0.019  0.00  0.00     0.114 H 
ATOM     11  H4  <0> d           2.011   3.769   0.004  0.00  0.00     0.087 H 
ENDROOT
TORSDOF 0
