REMARK  3 active torsions:
REMARK  status: ('A' for Active; 'I' for Inactive)
REMARK    1  A    between atoms: C1_1  and  N1_2 
REMARK       I    between atoms: N1_2  and  C2_3 
REMARK    2  A    between atoms: C2_3  and  C3_5 
REMARK    3  A    between atoms: C4_6  and  N4_10 
ROOT
ATOM      1  C3  <0> d           1.258   1.969   0.001  0.00  0.00     0.201 A 
ATOM      2  C4  <0> d           2.645   1.451  -0.015  0.00  0.00     0.188 A 
ATOM      3  N2  <0> d           3.361   2.552  -0.016  0.00  0.00    -0.085 NA
ATOM      4  O2  <0> d           2.625   3.510  -0.004  0.00  0.00    -0.104 OA
ATOM      5  N3  <0> d           1.440   3.272   0.000  0.00  0.00    -0.096 NA
ENDROOT
BRANCH   1   6
ATOM      6  C2  <0> d          -0.014   1.211   0.009  0.00  0.00     0.276 C 
ATOM      7  N1  <0> d          -1.191   1.869   0.018  0.00  0.00    -0.360 N 
ATOM      8  H4  <0> d          -1.204   2.839   0.023  0.00  0.00     0.162 HD
ATOM      9  O1  <0> d           0.002  -0.004   0.002  0.00  0.00    -0.266 OA
BRANCH   7  10
ATOM     10  C1  <0> d          -2.449   1.119   0.020  0.00  0.00    -0.018 C 
ATOM     11  H1  <0> d          -3.287   1.816   0.028  0.00  0.00     0.056 H 
ATOM     12  H2  <0> d          -2.503   0.497  -0.873  0.00  0.00     0.056 H 
ATOM     13  H3  <0> d          -2.494   0.487   0.906  0.00  0.00     0.056 H 
ENDBRANCH   7  10
ENDBRANCH   1   6
BRANCH   2  14
ATOM     14  N4  <0> d           3.080   0.133  -0.027  0.00  0.00    -0.380 N 
ATOM     15  H5  <0> d           2.434  -0.591  -0.026  0.00  0.00     0.158 HD
ATOM     16  H6  <0> d           4.029  -0.065  -0.037  0.00  0.00     0.158 HD
ENDBRANCH   2  14
TORSDOF 3
