REMARK  2 active torsions:
REMARK  status: ('A' for Active; 'I' for Inactive)
REMARK    1  A    between atoms: C2_3  and  N5_8 
REMARK    2  A    between atoms: C3_5  and  N4_7 
ROOT
ATOM      1  C1  <0> d          -1.124  -2.007   0.002  0.00  0.00     0.124 A 
ATOM      2  N1  <0> d           0.027  -2.657  -0.013  0.00  0.00    -0.055 NA
ATOM      3  C2  <0> d           1.174  -1.982  -0.020  0.00  0.00     0.737 A 
ATOM      4  N2  <0> d           1.161  -0.653  -0.013  0.00  0.00     0.129 NA
ATOM      5  C3  <0> d           0.002  -0.004   0.002  0.00  0.00     0.737 A 
ATOM      6  N3  <0> d          -1.141  -0.686   0.015  0.00  0.00    -0.055 NA
ATOM      7  H1  <0> d          -2.053  -2.558   0.008  0.00  0.00     0.148 H 
ENDROOT
BRANCH   3   8
ATOM      8  N5  <0> d           2.375  -2.661  -0.035  0.00  0.00    -0.230 N 
ATOM      9  H4  <0> d           3.211  -2.168  -0.040  0.00  0.00     0.174 HD
ATOM     10  H5  <0> d           2.384  -3.631  -0.040  0.00  0.00     0.174 HD
ENDBRANCH   3   8
BRANCH   5  11
ATOM     11  N4  <0> d          -0.017   1.376   0.010  0.00  0.00    -0.230 N 
ATOM     12  H2  <0> d           0.817   1.872   0.004  0.00  0.00     0.174 HD
ATOM     13  H3  <0> d          -0.863   1.849   0.016  0.00  0.00     0.174 HD
ENDBRANCH   5  11
TORSDOF 2
