REMARK  0 active torsions:
REMARK  status: ('A' for Active; 'I' for Inactive)
ROOT
ATOM      1  C1  <0> d           1.242  -0.561  -0.013  0.00  0.00    -0.028 A 
ATOM      2  C2  <0> d           0.002  -0.004   0.002  0.00  0.00    -0.041 A 
ATOM      3  S1  <0> d          -0.021   1.726   0.011  0.00  0.00    -0.114 SA
ATOM      4  C3  <0> d           1.552   2.449   0.000  0.00  0.00    -0.041 A 
ATOM      5  C4  <0> d           2.587   1.567  -0.014  0.00  0.00    -0.028 A 
ATOM      6  C5  <0> d           2.417   0.186  -0.020  0.00  0.00     0.172 A 
ATOM      7  O1  <0> d           3.451  -0.467  -0.032  0.00  0.00    -0.288 OA
ATOM      8  H1  <0> d           1.321  -1.638  -0.019  0.00  0.00     0.090 H 
ATOM      9  H2  <0> d          -0.901  -0.597   0.008  0.00  0.00     0.095 H 
ATOM     10  H3  <0> d           1.699   3.518   0.004  0.00  0.00     0.095 H 
ATOM     11  H4  <0> d           3.594   1.960  -0.021  0.00  0.00     0.090 H 
ENDROOT
TORSDOF 0
