REMARK  3 active torsions:
REMARK  status: ('A' for Active; 'I' for Inactive)
REMARK    1  A    between atoms: C1_1  and  O1_2 
REMARK    2  A    between atoms: O1_2  and  C2_3 
REMARK    3  A    between atoms: C6_8  and  C7_9 
ROOT
ATOM      1  C2  <0> d           2.476   3.733   0.004  0.00  0.00     0.088 A 
ATOM      2  C3  <0> d           2.470   5.125   0.007  0.00  0.00    -0.033 A 
ATOM      3  C4  <0> d           1.263   5.793   0.022  0.00  0.00     0.004 A 
ATOM      4  N1  <0> d           0.117   5.136   0.029  0.00  0.00    -0.272 NA
ATOM      5  C5  <0> d           0.066   3.821   0.022  0.00  0.00     0.021 A 
ATOM      6  C6  <0> d           1.238   3.064   0.007  0.00  0.00     0.091 A 
ATOM      7  H4  <0> d           3.399   5.676   0.001  0.00  0.00     0.090 H 
ATOM      8  H5  <0> d           1.255   6.873   0.029  0.00  0.00     0.114 H 
ATOM      9  H6  <0> d          -0.893   3.323   0.028  0.00  0.00     0.116 H 
ENDROOT
BRANCH   1  10
ATOM     10  O1  <0> d           3.642   3.042  -0.005  0.00  0.00    -0.355 OA
BRANCH  10  11
ATOM     11  C1  <0> d           4.849   3.806  -0.006  0.00  0.00     0.010 C 
ATOM     12  H1  <0> d           4.885   4.430   0.887  0.00  0.00     0.066 H 
ATOM     13  H2  <0> d           5.706   3.132  -0.014  0.00  0.00     0.066 H 
ATOM     14  H3  <0> d           4.877   4.439  -0.893  0.00  0.00     0.066 H 
ENDBRANCH  10  11
ENDBRANCH   1  10
BRANCH   6  15
ATOM     15  C7  <0> d           1.181   1.591  -0.001  0.00  0.00     0.213 C 
ATOM     16  O2  <0> d           2.209   0.943  -0.014  0.00  0.00    -0.644 OA
ATOM     17  O3  <0> d          -0.011   0.963   0.007  0.00  0.00    -0.644 OA
ENDBRANCH   6  15
TORSDOF 3
