REMARK  0 active torsions:
REMARK  status: ('A' for Active; 'I' for Inactive)
ROOT
ATOM      1  C1  <0> d           0.439   4.254   0.021  0.00  0.00    -0.081 A 
ATOM      2  C2  <0> d          -0.856   3.774   0.031  0.00  0.00    -0.062 A 
ATOM      3  C3  <0> d          -1.092   2.398   0.031  0.00  0.00     0.051 A 
ATOM      4  C4  <0> d          -0.018   1.506   0.010  0.00  0.00    -0.023 A 
ATOM      5  C5  <0> d           1.286   1.992   0.001  0.00  0.00     0.018 A 
ATOM      6  C6  <0> d           1.505   3.380   0.006  0.00  0.00    -0.069 A 
ATOM      7  C7  <0> d           2.254   0.882  -0.015  0.00  0.00     0.160 A 
ATOM      8  O1  <0> d           3.462   0.991  -0.026  0.00  0.00    -0.292 OA
ATOM      9  C8  <0> d           1.481  -0.414  -0.014  0.00  0.00    -0.001 A 
ATOM     10  C9  <0> d           0.002  -0.004   0.002  0.00  0.00    -0.032 A 
ATOM     11  C10 <0> d          -2.435   1.901   0.047  0.00  0.00     0.100 C 
ATOM     12  N1  <0> d          -3.501   1.508   0.060  0.00  0.00    -0.191 NA
ATOM     13  H1  <0> d           0.618   5.319   0.025  0.00  0.00     0.083 H 
ATOM     14  H2  <0> d          -1.687   4.464   0.043  0.00  0.00     0.085 H 
ATOM     15  H3  <0> d           2.514   3.764  -0.001  0.00  0.00     0.085 H 
ATOM     16  H4  <0> d           1.729  -0.950   0.793  0.00  0.00     0.045 H 
ATOM     17  H5  <0> d           1.704  -0.989  -0.913  0.00  0.00     0.045 H 
ATOM     18  H6  <0> d          -0.484  -0.390   0.898  0.00  0.00     0.040 H 
ATOM     19  H7  <0> d          -0.501  -0.381  -0.889  0.00  0.00     0.040 H 
ENDROOT
TORSDOF 0
