REMARK  3 active torsions:
REMARK  status: ('A' for Active; 'I' for Inactive)
REMARK    1  A    between atoms: C1_1  and  C2_2 
REMARK    2  A    between atoms: C4_5  and  S1_9 
REMARK    3  A    between atoms: S1_9  and  C6_10 
ROOT
ATOM      1  C2  <0> d           1.185   1.949   0.001  0.00  0.00     0.026 A 
ATOM      2  C3  <0> d           1.126   3.312   0.009  0.00  0.00     0.016 A 
ATOM      3  N1  <0> d          -0.052   3.930   0.022  0.00  0.00    -0.235 NA
ATOM      4  C4  <0> d          -1.183   3.250   0.029  0.00  0.00     0.191 A 
ATOM      5  N2  <0> d          -1.185   1.888   0.018  0.00  0.00    -0.183 NA
ATOM      6  C5  <0> d          -0.015   1.216   0.009  0.00  0.00     0.276 A 
ATOM      7  O1  <0> d           0.002  -0.004   0.002  0.00  0.00    -0.266 OA
ATOM      8  H4  <0> d           1.970   3.849   0.004  0.00  0.00     0.116 H 
ENDROOT
BRANCH   4   9
ATOM      9  S1  <0> d          -2.716   4.118   0.054  0.00  0.00    -0.095 SA
BRANCH   9  10
ATOM     10  C6  <0> d          -2.111   5.824   0.053  0.00  0.00    -0.027 C 
ATOM     11  H5  <0> d          -2.965   6.517   0.068  0.00  0.00     0.042 H 
ATOM     12  H6  <0> d          -1.512   6.000  -0.852  0.00  0.00     0.042 H 
ATOM     13  H7  <0> d          -1.487   5.992   0.944  0.00  0.00     0.042 H 
ENDBRANCH   9  10
ENDBRANCH   4   9
BRANCH   1  14
ATOM     14  C1  <0> d           2.515   1.240  -0.015  0.00  0.00    -0.045 C 
ATOM     15  H1  <0> d           3.326   1.983  -0.019  0.00  0.00     0.033 H 
ATOM     16  H2  <0> d           2.587   0.615  -0.917  0.00  0.00     0.033 H 
ATOM     17  H3  <0> d           2.603   0.606   0.879  0.00  0.00     0.033 H 
ENDBRANCH   1  14
TORSDOF 3
