REMARK  1 active torsions:
REMARK  status: ('A' for Active; 'I' for Inactive)
REMARK    1  A    between atoms: C3_4  and  C6_10 
REMARK       I    between atoms: C6_10  and  N2_12 
ROOT
ATOM      1  C1  <0> d          -0.016   1.356   0.010  0.00  0.00     0.018 A 
ATOM      2  C2  <0> d           1.203   2.063   0.002  0.00  0.00     0.193 A 
ATOM      3  O1  <0> d           1.222   3.284   0.008  0.00  0.00    -0.287 OA
ATOM      4  C3  <0> d           2.453   1.285  -0.014  0.00  0.00     0.097 A 
ATOM      5  C4  <0> d           2.369  -0.091  -0.021  0.00  0.00    -0.002 A 
ATOM      6  N1  <0> d           1.170  -0.701  -0.012  0.00  0.00    -0.343 N 
ATOM      7  H1  <0> d           1.111  -1.799  -0.017  0.00  0.00     0.167 HD
ATOM      8  C5  <0> d           0.002  -0.004   0.002  0.00  0.00     0.182 A 
ATOM      9  O2  <0> d          -1.168  -0.679   0.010  0.00  0.00    -0.172 OA
ATOM     10  H2  <0> d          -0.883   1.854   0.021  0.00  0.00     0.096 H 
ATOM     11  H3  <0> d           3.203  -0.642  -0.031  0.00  0.00     0.113 H 
ENDROOT
BRANCH   4  12
ATOM     12  C6  <0> d           3.761   1.960  -0.024  0.00  0.00     0.254 C 
ATOM     13  O3  <0> d           3.818   3.175  -0.018  0.00  0.00    -0.268 OA
ATOM     14  N2  <0> d           4.895   1.232  -0.038  0.00  0.00    -0.366 N 
ATOM     15  H4  <0> d           4.843   0.133  -0.044  0.00  0.00     0.159 HD
ATOM     16  H5  <0> d           5.872   1.737  -0.045  0.00  0.00     0.159 HD
ENDBRANCH   4  12
TORSDOF 1
