REMARK  0 active torsions:
REMARK  status: ('A' for Active; 'I' for Inactive)
ROOT
ATOM      1  C1  <0> d          -0.017   1.391   0.010  0.00  0.00    -0.038 A 
ATOM      2  C2  <0> d           1.169   2.069   0.002  0.00  0.00     0.006 A 
ATOM      3  N1  <0> d           2.331   1.435  -0.013  0.00  0.00    -0.248 NA
ATOM      4  C3  <0> d           2.418   0.121  -0.020  0.00  0.00     0.139 A 
ATOM      5  C4  <0> d           1.255  -0.654  -0.013  0.00  0.00     0.052 A 
ATOM      6  C5  <0> d           0.002  -0.004   0.002  0.00  0.00     0.066 A 
ATOM      7  N2  <0> d          -0.950  -0.982   0.005  0.00  0.00    -0.278 N 
ATOM      8  H1  <0> d          -1.909  -0.833   0.015  0.00  0.00     0.189 HD
ATOM      9  N3  <0> d          -0.323  -2.232  -0.007  0.00  0.00    -0.186 NA
ATOM     10  C6  <0> d           0.972  -2.084  -0.018  0.00  0.00     0.037 A 
ATOM     11 Cl1  <0> d           3.974  -0.647  -0.040  0.00  0.00    -0.061 Cl
ATOM     12  H2  <0> d          -0.955   1.926   0.026  0.00  0.00     0.089 H 
ATOM     13  H3  <0> d           1.158   3.148   0.008  0.00  0.00     0.114 H 
ATOM     14  H4  <0> d           1.703  -2.878  -0.029  0.00  0.00     0.118 H 
ENDROOT
TORSDOF 0
