REMARK  6 active torsions:
REMARK  status: ('A' for Active; 'I' for Inactive)
REMARK    1  A    between atoms: C2_2  and  C3_3 
REMARK    2  A    between atoms: C3_3  and  O1_4 
REMARK    3  A    between atoms: O1_4  and  C4_5 
REMARK    4  A    between atoms: C4_5  and  O3_7 
REMARK    5  A    between atoms: O3_7  and  C5_8 
REMARK    6  A    between atoms: C5_8  and  C6_9 
ROOT
ATOM      1  C4  <0> d          -4.566   0.947   1.121  0.00  0.00     0.406 C 
ATOM      2  O2  <0> d          -4.856  -0.013   0.437  0.00  0.00    -0.229 OA
ENDROOT
BRANCH   1   3
ATOM      3  O1  <0> d          -3.357   1.523   0.994  0.00  0.00    -0.294 OA
BRANCH   3   4
ATOM      4  C3  <0> d          -2.451   0.944   0.019  0.00  0.00     0.045 C 
ATOM      5  H4  <0> d          -2.904   0.992  -0.972  0.00  0.00     0.081 H 
ATOM      6  H5  <0> d          -2.253  -0.096   0.278  0.00  0.00     0.081 H 
BRANCH   4   7
ATOM      7  C2  <0> d          -1.156   1.715   0.017  0.00  0.00    -0.089 C 
ATOM      8  C1  <0> d          -0.013   1.076   0.008  0.00  0.00    -0.123 C 
ATOM      9  H1  <0> d           0.002  -0.004   0.002  0.00  0.00     0.066 H 
ATOM     10  H2  <0> d           0.915   1.629   0.002  0.00  0.00     0.066 H 
ATOM     11  H3  <0> d          -1.171   2.795   0.023  0.00  0.00     0.078 H 
ENDBRANCH   4   7
ENDBRANCH   3   4
ENDBRANCH   1   3
BRANCH   1  12
ATOM     12  O3  <0> d          -5.454   1.434   2.007  0.00  0.00    -0.294 OA
BRANCH  12  13
ATOM     13  C5  <0> d          -6.738   0.763   2.091  0.00  0.00     0.045 C 
ATOM     14  H6  <0> d          -7.236   0.809   1.122  0.00  0.00     0.081 H 
ATOM     15  H7  <0> d          -6.586  -0.279   2.372  0.00  0.00     0.081 H 
BRANCH  13  16
ATOM     16  C6  <0> d          -7.594   1.443   3.128  0.00  0.00    -0.089 C 
ATOM     17  C7  <0> d          -8.851   1.707   2.870  0.00  0.00    -0.123 C 
ATOM     18  H9  <0> d          -9.274   1.438   1.913  0.00  0.00     0.066 H 
ATOM     19  H10 <0> d          -9.464   2.195   3.613  0.00  0.00     0.066 H 
ATOM     20  H8  <0> d          -7.171   1.712   4.085  0.00  0.00     0.078 H 
ENDBRANCH  13  16
ENDBRANCH  12  13
ENDBRANCH   1  12
TORSDOF 6
