REMARK  3 active torsions:
REMARK  status: ('A' for Active; 'I' for Inactive)
REMARK    1  A    between atoms: C3_3  and  N1_9 
REMARK    2  A    between atoms: C6_6  and  C7_7 
REMARK    3  A    between atoms: C7_7  and  O1_8 
ROOT
ATOM      1  C1  <0> d          -0.358   2.780   1.817  0.00  0.00    -0.073 A 
ATOM      2  C2  <0> d          -1.007   3.231   2.950  0.00  0.00    -0.057 A 
ATOM      3  C3  <0> d          -2.013   2.464   3.524  0.00  0.00     0.025 A 
ATOM      4  C4  <0> d          -2.368   1.249   2.953  0.00  0.00    -0.057 A 
ATOM      5  C5  <0> d          -1.720   0.806   1.817  0.00  0.00    -0.073 A 
ATOM      6  C6  <0> d          -0.718   1.572   1.248  0.00  0.00    -0.035 A 
ATOM      7  H1  <0> d           0.427   3.373   1.373  0.00  0.00     0.084 H 
ATOM      8  H2  <0> d          -0.729   4.176   3.392  0.00  0.00     0.086 H 
ATOM      9  H3  <0> d          -3.150   0.650   3.397  0.00  0.00     0.086 H 
ATOM     10  H4  <0> d          -1.995  -0.138   1.372  0.00  0.00     0.084 H 
ENDROOT
BRANCH   6  11
ATOM     11  C7  <0> d          -0.013   1.086   0.008  0.00  0.00     0.040 C 
ATOM     12  H5  <0> d           0.002  -0.004   0.002  0.00  0.00     0.081 H 
ATOM     13  H6  <0> d           1.010   1.463   0.000  0.00  0.00     0.081 H 
BRANCH  11  14
ATOM     14  O1  <0> d          -0.704   1.559  -1.150  0.00  0.00    -0.396 OA
ATOM     15  H7  <0> d          -0.304   1.284  -1.986  0.00  0.00     0.209 HD
ENDBRANCH  11  14
ENDBRANCH   6  11
BRANCH   3  16
ATOM     16  N1  <0> d          -2.667   2.915   4.673  0.00  0.00    -0.399 N 
ATOM     17  H8  <0> d          -3.370   2.379   5.073  0.00  0.00     0.156 HD
ATOM     18  H9  <0> d          -2.419   3.764   5.072  0.00  0.00     0.156 HD
ENDBRANCH   3  16
TORSDOF 3
