REMARK  3 active torsions:
REMARK  status: ('A' for Active; 'I' for Inactive)
REMARK    1  A    between atoms: C1_1  and  C2_2 
REMARK    2  A    between atoms: C2_2  and  N1_3 
REMARK    3  A    between atoms: C3_4  and  C11_12 
ROOT
ATOM      1  N1  <0> d          -2.254   4.064   0.045  0.00  0.00    -0.350 N 
ATOM      2  C3  <0> d          -1.724   5.326   0.046  0.00  0.00     0.009 A 
ATOM      3  C4  <0> d          -0.384   5.261   0.033  0.00  0.00    -0.049 A 
ATOM      4  C5  <0> d          -0.025   3.840   0.022  0.00  0.00    -0.007 A 
ATOM      5  C6  <0> d          -1.240   3.132   0.031  0.00  0.00     0.044 A 
ATOM      6  C7  <0> d          -1.219   1.742   0.017  0.00  0.00    -0.056 A 
ATOM      7  C8  <0> d          -0.013   1.076   0.008  0.00  0.00    -0.081 A 
ATOM      8  C9  <0> d           1.184   1.779   0.000  0.00  0.00    -0.082 A 
ATOM      9  C10 <0> d           1.186   3.146   0.007  0.00  0.00    -0.071 A 
ATOM     10  H6  <0> d           0.300   6.096   0.031  0.00  0.00     0.087 H 
ATOM     11  H7  <0> d          -2.145   1.185   0.019  0.00  0.00     0.087 H 
ATOM     12  H8  <0> d           0.002  -0.004   0.002  0.00  0.00     0.083 H 
ATOM     13  H9  <0> d           2.121   1.242  -0.011  0.00  0.00     0.083 H 
ATOM     14  H10 <0> d           2.121   3.686   0.001  0.00  0.00     0.084 H 
ENDROOT
BRANCH   1  15
ATOM     15  C2  <0> d          -3.685   3.752   0.058  0.00  0.00    -0.003 C 
ATOM     16  H4  <0> d          -3.845   2.802   0.568  0.00  0.00     0.064 H 
ATOM     17  H5  <0> d          -4.224   4.541   0.581  0.00  0.00     0.064 H 
BRANCH  15  18
ATOM     18  C1  <0> d          -4.197   3.651  -1.380  0.00  0.00    -0.061 C 
ATOM     19  H1  <0> d          -4.037   4.601  -1.891  0.00  0.00     0.029 H 
ATOM     20  H2  <0> d          -3.658   2.862  -1.904  0.00  0.00     0.029 H 
ATOM     21  H3  <0> d          -5.262   3.419  -1.371  0.00  0.00     0.029 H 
ENDBRANCH  15  18
ENDBRANCH   1  15
BRANCH   2  22
ATOM     22  C11 <0> d          -2.528   6.601   0.060  0.00  0.00    -0.037 C 
ATOM     23  H11 <0> d          -2.731   6.913  -0.964  0.00  0.00     0.035 H 
ATOM     24  H12 <0> d          -3.470   6.432   0.582  0.00  0.00     0.035 H 
ATOM     25  H13 <0> d          -1.964   7.381   0.572  0.00  0.00     0.035 H 
ENDBRANCH   2  22
TORSDOF 3
