REMARK  4 active torsions:
REMARK  status: ('A' for Active; 'I' for Inactive)
REMARK    1  A    between atoms: C1_1  and  C2_2 
REMARK    2  A    between atoms: C2_2  and  S1_3 
REMARK    3  A    between atoms: S1_3  and  C3_4 
REMARK    4  A    between atoms: C5_8  and  N4_10 
ROOT
ATOM      1  C3  <0> d          -1.383  -2.364   0.003  0.00  0.00     0.208 A 
ATOM      2  N1  <0> d          -0.130  -2.816  -0.017  0.00  0.00    -0.215 NA
ATOM      3  C4  <0> d           0.106  -4.115  -0.022  0.00  0.00     0.108 A 
ATOM      4  N2  <0> d          -0.899  -4.973  -0.017  0.00  0.00    -0.056 NA
ATOM      5  C5  <0> d          -2.155  -4.530  -0.002  0.00  0.00     0.723 A 
ATOM      6  N3  <0> d          -2.396  -3.224   0.008  0.00  0.00    -0.037 NA
ATOM      7  H6  <0> d           1.123  -4.478  -0.034  0.00  0.00     0.147 H 
ENDROOT
BRANCH   1   8
ATOM      8  S1  <0> d          -1.696  -0.631   0.015  0.00  0.00    -0.090 SA
BRANCH   8   9
ATOM      9  C2  <0> d           0.002  -0.004   0.002  0.00  0.00    -0.019 C 
ATOM     10  H4  <0> d           0.512  -0.356  -0.895  0.00  0.00     0.049 H 
ATOM     11  H5  <0> d           0.529  -0.365   0.885  0.00  0.00     0.049 H 
BRANCH   9  12
ATOM     12  C1  <0> d          -0.019   1.526   0.010  0.00  0.00    -0.068 C 
ATOM     13  H1  <0> d           1.004   1.903   0.003  0.00  0.00     0.028 H 
ATOM     14  H2  <0> d          -0.546   1.887  -0.873  0.00  0.00     0.028 H 
ATOM     15  H3  <0> d          -0.529   1.877   0.907  0.00  0.00     0.028 H 
ENDBRANCH   9  12
ENDBRANCH   8   9
ENDBRANCH   1   8
BRANCH   5  16
ATOM     16  N4  <0> d          -3.204  -5.427   0.003  0.00  0.00    -0.231 N 
ATOM     17  H7  <0> d          -4.118  -5.104   0.013  0.00  0.00     0.174 HD
ATOM     18  H8  <0> d          -3.026  -6.381  -0.005  0.00  0.00     0.174 HD
ENDBRANCH   5  16
TORSDOF 4
