REMARK  4 active torsions:
REMARK  status: ('A' for Active; 'I' for Inactive)
REMARK    1  A    between atoms: C2_2  and  C3_3 
REMARK    2  A    between atoms: C3_3  and  N1_4 
REMARK    3  A    between atoms: N1_4  and  C4_5 
REMARK    4  A    between atoms: C4_5  and  C5_6 
ROOT
ATOM      1  C1  <0> d          -3.236   0.508  -1.043  0.00  0.00    -0.152 C 
ATOM      2  C2  <0> d          -2.153   0.960  -1.077  0.00  0.00    -0.087 C 
ATOM      3  H1  <0> d          -4.251   0.085  -1.012  0.00  0.00     0.166 H 
ENDROOT
BRANCH   2   4
ATOM      4  C3  <0> d          -0.795   1.527  -1.120  0.00  0.00     0.165 C 
ATOM      5  H2  <0> d          -0.310   1.245  -2.066  0.00  0.00     0.099 H 
ATOM      6  H3  <0> d          -0.853   2.623  -1.050  0.00  0.00     0.099 H 
BRANCH   4   7
ATOM      7  N1  <0> d          -0.012   1.005   0.008  0.00  0.00     0.102 N 
ATOM      8  H4  <0> d          -0.497   1.287   0.954  0.00  0.00     0.317 HD
BRANCH   7   9
ATOM      9  C4  <0> d           1.353   1.550  -0.003  0.00  0.00     0.201 C 
ATOM     10  H5  <0> d           1.853   1.268  -0.941  0.00  0.00     0.093 H 
ATOM     11  H6  <0> d           1.310   2.646   0.075  0.00  0.00     0.093 H 
BRANCH   9  12
ATOM     12  C5  <0> d           2.136   0.985   1.184  0.00  0.00     0.413 C 
ATOM     13  F1  <0> d           2.191  -0.410   1.085  0.00  0.00    -0.169 F 
ATOM     14  F2  <0> d           3.436   1.504   1.174  0.00  0.00    -0.169 F 
ATOM     15  F3  <0> d           1.500   1.343   2.377  0.00  0.00    -0.169 F 
ENDBRANCH   9  12
ENDBRANCH   7   9
ENDBRANCH   4   7
ENDBRANCH   2   4
TORSDOF 4
