REMARK  4 active torsions:
REMARK  status: ('A' for Active; 'I' for Inactive)
REMARK    1  A    between atoms: C1_1  and  C2_2 
REMARK    2  A    between atoms: C2_2  and  C3_4 
REMARK    3  A    between atoms: C6_7  and  O3_11 
REMARK    4  A    between atoms: C8_9  and  O2_10 
ROOT
ATOM      1  C3  <0> d           3.736   2.695  -0.004  0.00  0.00     0.043 A 
ATOM      2  C4  <0> d           3.102   2.382   1.207  0.00  0.00    -0.064 A 
ATOM      3  C5  <0> d           1.861   1.815   1.202  0.00  0.00    -0.050 A 
ATOM      4  C6  <0> d           1.219   1.534  -0.002  0.00  0.00     0.068 A 
ATOM      5  C7  <0> d           1.831   1.837  -1.209  0.00  0.00    -0.018 A 
ATOM      6  C8  <0> d           3.088   2.417  -1.221  0.00  0.00     0.082 A 
ATOM      7  H4  <0> d           3.595   2.593   2.144  0.00  0.00     0.085 H 
ATOM      8  H5  <0> d           1.375   1.580   2.137  0.00  0.00     0.087 H 
ATOM      9  H6  <0> d           1.327   1.621  -2.140  0.00  0.00     0.092 H 
ENDROOT
BRANCH   1  10
ATOM     10  C2  <0> d           5.066   3.308  -0.001  0.00  0.00     0.158 C 
ATOM     11  O1  <0> d           5.654   3.487  -1.047  0.00  0.00    -0.293 OA
BRANCH  10  12
ATOM     12  C1  <0> d           5.706   3.715   1.302  0.00  0.00    -0.017 C 
ATOM     13  H1  <0> d           5.127   3.423   2.063  0.00  0.00     0.038 H 
ATOM     14  H2  <0> d           6.685   3.245   1.389  0.00  0.00     0.038 H 
ATOM     15  H3  <0> d           5.820   4.799   1.327  0.00  0.00     0.038 H 
ENDBRANCH  10  12
ENDBRANCH   1  10
BRANCH   6  16
ATOM     16  O2  <0> d           3.692   2.715  -2.398  0.00  0.00    -0.360 OA
ATOM     17  H7  <0> d           3.497   3.603  -2.726  0.00  0.00     0.217 HD
ENDBRANCH   6  16
BRANCH   4  18
ATOM     18  O3  <0> d          -0.013   0.967   0.007  0.00  0.00    -0.361 OA
ATOM     19  H8  <0> d          -0.000  -0.000  -0.004  0.00  0.00     0.217 HD
ENDBRANCH   4  18
TORSDOF 4
