REMARK  1 active torsions:
REMARK  status: ('A' for Active; 'I' for Inactive)
REMARK    1  A    between atoms: C1_1  and  C2_2 
ROOT
ATOM      1  C2  <0> d          -0.022   3.859   0.022  0.00  0.00    -0.031 A 
ATOM      2  C3  <0> d           1.159   3.172   0.008  0.00  0.00    -0.075 A 
ATOM      3  C4  <0> d           1.170   1.785   0.001  0.00  0.00    -0.080 A 
ATOM      4  C5  <0> d          -0.013   1.076   0.008  0.00  0.00    -0.055 A 
ATOM      5  C6  <0> d          -1.222   1.757   0.017  0.00  0.00     0.062 A 
ATOM      6  C7  <0> d          -1.233   3.162   0.030  0.00  0.00     0.090 A 
ATOM      7  N1  <0> d          -2.535   3.547   0.044  0.00  0.00    -0.241 NA
ATOM      8  C8  <0> d          -3.302   2.496   0.046  0.00  0.00     0.065 A 
ATOM      9  N2  <0> d          -2.546   1.365   0.033  0.00  0.00    -0.349 N 
ATOM     10  H1  <0> d          -2.886   0.424   0.034  0.00  0.00     0.167 HD
ATOM     11  H5  <0> d           2.092   3.714   0.003  0.00  0.00     0.084 H 
ATOM     12  H6  <0> d           2.112   1.256  -0.011  0.00  0.00     0.083 H 
ATOM     13  H7  <0> d           0.002  -0.004   0.002  0.00  0.00     0.087 H 
ATOM     14  H8  <0> d          -4.382   2.518   0.056  0.00  0.00     0.143 H 
ENDROOT
BRANCH   1  15
ATOM     15  C1  <0> d          -0.019   5.366   0.030  0.00  0.00    -0.049 C 
ATOM     16  H2  <0> d          -0.028   5.734  -0.996  0.00  0.00     0.033 H 
ATOM     17  H3  <0> d          -0.903   5.729   0.554  0.00  0.00     0.033 H 
ATOM     18  H4  <0> d           0.876   5.725   0.537  0.00  0.00     0.033 H 
ENDBRANCH   1  15
TORSDOF 1
