REMARK  2 active torsions:
REMARK  status: ('A' for Active; 'I' for Inactive)
REMARK    1  A    between atoms: C1_1  and  C2_2 
REMARK    2  A    between atoms: C2_2  and  C3_3 
ROOT
ATOM      1  C3  <0> d           1.207   3.140   0.008  0.00  0.00    -0.029 A 
ATOM      2  C4  <0> d           1.190   1.780   0.000  0.00  0.00    -0.075 A 
ATOM      3  C5  <0> d          -0.013   1.076   0.008  0.00  0.00    -0.082 A 
ATOM      4  C6  <0> d          -1.206   1.732   0.017  0.00  0.00    -0.071 A 
ATOM      5  C7  <0> d          -1.226   3.135   0.031  0.00  0.00    -0.007 A 
ATOM      6  C8  <0> d          -0.004   3.853   0.023  0.00  0.00     0.073 A 
ATOM      7  N1  <0> d          -0.018   5.190   0.032  0.00  0.00    -0.260 NA
ATOM      8  C9  <0> d          -1.145   5.859   0.045  0.00  0.00     0.003 A 
ATOM      9  C10 <0> d          -2.381   5.215   0.053  0.00  0.00    -0.065 A 
ATOM     10  C11 <0> d          -2.438   3.851   0.046  0.00  0.00    -0.069 A 
ATOM     11  H6  <0> d           2.123   1.237  -0.012  0.00  0.00     0.084 H 
ATOM     12  H7  <0> d           0.002  -0.004   0.002  0.00  0.00     0.083 H 
ATOM     13  H8  <0> d          -2.131   1.175   0.018  0.00  0.00     0.084 H 
ATOM     14  H9  <0> d          -1.115   6.939   0.051  0.00  0.00     0.114 H 
ATOM     15  H10 <0> d          -3.292   5.795   0.066  0.00  0.00     0.085 H 
ATOM     16  H11 <0> d          -3.387   3.335   0.052  0.00  0.00     0.085 H 
ENDROOT
BRANCH   1  17
ATOM     17  C2  <0> d           2.520   3.880  -0.001  0.00  0.00    -0.042 C 
ATOM     18  H4  <0> d           3.289   3.250  -0.446  0.00  0.00     0.039 H 
ATOM     19  H5  <0> d           2.417   4.795  -0.584  0.00  0.00     0.039 H 
BRANCH  17  20
ATOM     20  C1  <0> d           2.916   4.232   1.435  0.00  0.00    -0.073 C 
ATOM     21  H1  <0> d           3.019   3.317   2.018  0.00  0.00     0.028 H 
ATOM     22  H2  <0> d           3.866   4.767   1.428  0.00  0.00     0.028 H 
ATOM     23  H3  <0> d           2.147   4.863   1.880  0.00  0.00     0.028 H 
ENDBRANCH  17  20
ENDBRANCH   1  17
TORSDOF 2
