REMARK  4 active torsions:
REMARK  status: ('A' for Active; 'I' for Inactive)
REMARK    1  A    between atoms: C1_1  and  C2_2 
REMARK    2  A    between atoms: C2_2  and  C3_4 
REMARK    3  A    between atoms: C2_2  and  C7_10 
REMARK    4  A    between atoms: C3_4  and  N1_5 
ROOT
ATOM      1  C3  <0> d          -1.433  -0.534   0.013  0.00  0.00     0.012 C 
ATOM      2  H5  <0> d          -1.975  -0.107   0.870  0.00  0.00     0.066 H 
ATOM      3  H6  <0> d          -1.938  -0.244  -0.921  0.00  0.00     0.066 H 
ENDROOT
BRANCH   1   4
ATOM      4  C2  <0> d           0.002  -0.004   0.002  0.00  0.00     0.043 C 
ATOM      5  H1  <0> d           0.537  -0.354   0.898  0.00  0.00     0.058 H 
BRANCH   4   6
ATOM      6  C1  <0> d           0.718  -0.497  -1.257  0.00  0.00    -0.062 C 
ATOM      7  H2  <0> d           1.750  -0.117  -1.265  0.00  0.00     0.028 H 
ATOM      8  H3  <0> d           0.186  -0.133  -2.148  0.00  0.00     0.028 H 
ATOM      9  H4  <0> d           0.733  -1.597  -1.263  0.00  0.00     0.028 H 
ENDBRANCH   4   6
BRANCH   4  10
ATOM     10  C7  <0> d          -0.018   1.503   0.010  0.00  0.00     0.178 C 
ATOM     11  O1  <0> d          -1.073   2.093   0.018  0.00  0.00    -0.648 OA
ATOM     12  O2  <0> d           1.135   2.190   0.003  0.00  0.00    -0.648 OA
ENDBRANCH   4  10
ENDBRANCH   1   4
BRANCH   1  13
ATOM     13  N1  <0> d          -1.414  -1.994   0.125  0.00  0.00    -0.349 N 
ATOM     14  C6  <0> d          -1.387  -2.876  -0.897  0.00  0.00     0.065 A 
ATOM     15  N2  <0> d          -1.373  -4.085  -0.406  0.00  0.00    -0.255 NA
ATOM     16  H9  <0> d          -1.376  -2.623  -1.947  0.00  0.00     0.143 H 
ATOM     17  C5  <0> d          -1.400  -4.019   0.933  0.00  0.00     0.018 A 
ATOM     18  C4  <0> d          -1.426  -2.720   1.286  0.00  0.00    -0.003 A 
ATOM     19  H8  <0> d          -1.401  -4.861   1.610  0.00  0.00     0.117 H 
ATOM     20  H7  <0> d          -1.452  -2.326   2.291  0.00  0.00     0.113 H 
ENDBRANCH   1  13
TORSDOF 4
