REMARK  4 active torsions:
REMARK  status: ('A' for Active; 'I' for Inactive)
REMARK    1  A    between atoms: C1_1  and  C2_2 
REMARK       I    between atoms: C2_2  and  N1_4 
REMARK    2  A    between atoms: N1_4  and  C3_5 
REMARK    3  A    between atoms: C3_5  and  C4_6 
REMARK    4  A    between atoms: C4_6  and  N2_7 
ROOT
ATOM      1  C3  <0> d           0.002  -0.004   0.002  0.00  0.00     0.012 C 
ATOM      2  H5  <0> d          -1.030  -0.385   0.010  0.00  0.00     0.066 H 
ATOM      3  H6  <0> d           0.534  -0.368   0.893  0.00  0.00     0.066 H 
ENDROOT
BRANCH   1   4
ATOM      4  N1  <0> d           0.688  -0.476  -1.203  0.00  0.00    -0.360 N 
ATOM      5  C2  <0> d           0.827  -1.799  -1.425  0.00  0.00     0.213 C 
ATOM      6  O1  <0> d           0.384  -2.597  -0.627  0.00  0.00    -0.274 OA
ATOM      7  H4  <0> d           1.089   0.248  -1.927  0.00  0.00     0.162 HD
BRANCH   5   8
ATOM      8  C1  <0> d           1.532  -2.285  -2.665  0.00  0.00    -0.003 C 
ATOM      9  H1  <0> d           1.861  -1.421  -3.262  0.00  0.00     0.040 H 
ATOM     10  H2  <0> d           0.844  -2.902  -3.260  0.00  0.00     0.040 H 
ATOM     11  H3  <0> d           2.408  -2.885  -2.377  0.00  0.00     0.040 H 
ENDBRANCH   5   8
ENDBRANCH   1   4
BRANCH   1  12
ATOM     12  C4  <0> d          -0.019   1.526   0.010  0.00  0.00     0.031 C 
ATOM     13  H7  <0> d           1.013   1.907   0.003  0.00  0.00     0.069 H 
ATOM     14  H8  <0> d          -0.551   1.890  -0.881  0.00  0.00     0.069 H 
BRANCH  12  15
ATOM     15  N2  <0> d          -0.704   1.998   1.216  0.00  0.00    -0.280 N 
ATOM     16  N3  <0> d          -1.998   1.645   1.619  0.00  0.00    -0.185 NA
ATOM     17  C7  <0> d          -2.259   2.263   2.743  0.00  0.00     0.023 A 
ATOM     18  C6  <0> d          -1.144   3.036   3.085  0.00  0.00    -0.048 A 
ATOM     19  H11 <0> d          -3.178   2.193   3.306  0.00  0.00     0.117 H 
ATOM     20  C5  <0> d          -0.203   2.855   2.130  0.00  0.00    -0.000 A 
ATOM     21  H10 <0> d          -1.051   3.666   3.958  0.00  0.00     0.087 H 
ATOM     22  H9  <0> d           0.774   3.313   2.104  0.00  0.00     0.114 H 
ENDBRANCH  12  15
ENDBRANCH   1  12
TORSDOF 4
