REMARK  1 active torsions:
REMARK  status: ('A' for Active; 'I' for Inactive)
REMARK    1  A    between atoms: C1_1  and  N3_9 
REMARK       I    between atoms: N3_9  and  C4_10 
REMARK       I    between atoms: C4_10  and  N4_12 
ROOT
ATOM      1  C1  <0> d          -0.013   1.086   0.008  0.00  0.00     0.161 A 
ATOM      2  H1  <0> d           0.002  -0.004   0.002  0.00  0.00     0.122 H 
ATOM      3  C2  <0> d          -0.613   1.618  -1.278  0.00  0.00     0.268 A 
ATOM      4  O1  <0> d          -1.737   1.431  -1.694  0.00  0.00    -0.269 OA
ATOM      5  N1  <0> d           0.361   2.343  -1.863  0.00  0.00    -0.276 N 
ATOM      6  C3  <0> d           1.482   2.342  -1.132  0.00  0.00     0.324 A 
ATOM      7  O2  <0> d           2.498   2.927  -1.454  0.00  0.00    -0.247 OA
ATOM      8  N2  <0> d           1.359   1.623  -0.002  0.00  0.00    -0.313 N 
ATOM      9  H2  <0> d           0.262   2.807  -2.708  0.00  0.00     0.173 HD
ATOM     10  H3  <0> d           2.041   1.485   0.674  0.00  0.00     0.166 HD
ENDROOT
BRANCH   1  11
ATOM     11  N3  <0> d          -0.752   1.583   1.171  0.00  0.00    -0.314 N 
ATOM     12  C4  <0> d          -1.022   0.758   2.201  0.00  0.00     0.315 C 
ATOM     13  O3  <0> d          -0.651  -0.399   2.167  0.00  0.00    -0.248 OA
ATOM     14  N4  <0> d          -1.702   1.216   3.271  0.00  0.00    -0.352 N 
ATOM     15  H5  <0> d          -1.998   2.139   3.299  0.00  0.00     0.160 HD
ATOM     16  H6  <0> d          -1.896   0.622   4.013  0.00  0.00     0.160 HD
ATOM     17  H4  <0> d          -1.048   2.507   1.198  0.00  0.00     0.166 HD
ENDBRANCH   1  11
TORSDOF 1
