REMARK  2 active torsions:
REMARK  status: ('A' for Active; 'I' for Inactive)
REMARK    1  A    between atoms: C3_3  and  N3_9 
REMARK    2  A    between atoms: C4_5  and  N2_8 
ROOT
ATOM      1  C1  <0> d          -3.619   1.611   0.028  0.00  0.00    -0.055 A 
ATOM      2  C2  <0> d          -2.414   0.926   0.018  0.00  0.00    -0.037 A 
ATOM      3  C3  <0> d          -1.225   1.645   0.017  0.00  0.00     0.123 A 
ATOM      4  N1  <0> d          -1.234   2.970   0.030  0.00  0.00    -0.213 NA
ATOM      5  C4  <0> d          -2.369   3.654   0.034  0.00  0.00     0.145 A 
ATOM      6  C5  <0> d          -3.594   2.996   0.036  0.00  0.00     0.079 A 
ATOM      7 Cl1  <0> d          -5.076   3.901   0.049  0.00  0.00    -0.080 Cl
ATOM      8  H1  <0> d          -4.557   1.076   0.030  0.00  0.00     0.086 H 
ATOM      9  H2  <0> d          -2.400  -0.153   0.013  0.00  0.00     0.089 H 
ENDROOT
BRANCH   3  10
ATOM     10  N3  <0> d          -0.011   0.966   0.007  0.00  0.00    -0.384 N 
ATOM     11  H5  <0> d           0.934   1.529   0.006  0.00  0.00     0.157 HD
ATOM     12  H6  <0> d           0.004  -0.134   0.001  0.00  0.00     0.157 HD
ENDBRANCH   3  10
BRANCH   5  13
ATOM     13  N2  <0> d          -2.333   5.044   0.042  0.00  0.00    -0.383 N 
ATOM     14  H3  <0> d          -3.272   5.618   0.046  0.00  0.00     0.157 HD
ATOM     15  H4  <0> d          -1.367   5.570   0.045  0.00  0.00     0.157 HD
ENDBRANCH   5  13
TORSDOF 2
