REMARK  3 active torsions:
REMARK  status: ('A' for Active; 'I' for Inactive)
REMARK    1  A    between atoms: C1_1  and  C2_2 
REMARK    2  A    between atoms: C2_2  and  N1_3 
REMARK    3  A    between atoms: N1_3  and  C3_4 
ROOT
ATOM      1  C3  <0> d           0.832  -1.847  -1.433  0.00  0.00     0.050 A 
ATOM      2  C4  <0> d           0.331  -2.763  -0.517  0.00  0.00    -0.056 A 
ATOM      3  C5  <0> d           0.470  -4.117  -0.750  0.00  0.00    -0.081 A 
ATOM      4  C6  <0> d           1.118  -4.562  -1.888  0.00  0.00    -0.081 A 
ATOM      5  C7  <0> d           1.623  -3.654  -2.800  0.00  0.00    -0.060 A 
ATOM      6  C8  <0> d           1.482  -2.297  -2.576  0.00  0.00     0.060 A 
ATOM      7 Cl1  <0> d           2.118  -1.157  -3.721  0.00  0.00    -0.082 Cl
ATOM      8  H7  <0> d          -0.171  -2.417   0.374  0.00  0.00     0.087 H 
ATOM      9  H8  <0> d           0.077  -4.830  -0.040  0.00  0.00     0.083 H 
ATOM     10  H9  <0> d           1.230  -5.622  -2.065  0.00  0.00     0.083 H 
ATOM     11  H10 <0> d           2.128  -4.005  -3.688  0.00  0.00     0.086 H 
ENDROOT
BRANCH   1  12
ATOM     12  N1  <0> d           0.688  -0.476  -1.203  0.00  0.00    -0.389 N 
ATOM     13  H6  <0> d           1.089   0.248  -1.927  0.00  0.00     0.159 HD
BRANCH  12  14
ATOM     14  C2  <0> d           0.002  -0.004   0.002  0.00  0.00    -0.011 C 
ATOM     15  H4  <0> d           0.534  -0.368   0.893  0.00  0.00     0.063 H 
ATOM     16  H5  <0> d          -1.030  -0.385   0.010  0.00  0.00     0.063 H 
BRANCH  14  17
ATOM     17  C1  <0> d          -0.019   1.526   0.010  0.00  0.00    -0.061 C 
ATOM     18  H1  <0> d          -0.534   1.881   0.915  0.00  0.00     0.029 H 
ATOM     19  H2  <0> d          -0.551   1.890  -0.881  0.00  0.00     0.029 H 
ATOM     20  H3  <0> d           1.013   1.907   0.003  0.00  0.00     0.029 H 
ENDBRANCH  14  17
ENDBRANCH  12  14
ENDBRANCH   1  12
TORSDOF 3
