REMARK  1 active torsions:
REMARK  status: ('A' for Active; 'I' for Inactive)
REMARK    1  A    between atoms: C2_2  and  C5_8 
REMARK       I    between atoms: C5_8  and  N2_10 
ROOT
ATOM      1  C1  <0> d           0.002  -0.004   0.002  0.00  0.00     0.022 C 
ATOM      2  C2  <0> d           1.442  -0.361  -0.433  0.00  0.00     0.046 C 
ATOM      3  H1  <0> d           1.499  -0.508  -1.512  0.00  0.00     0.057 H 
ATOM      4  C3  <0> d           2.223   0.901  -0.005  0.00  0.00     0.007 C 
ATOM      5  N1  <0> d           1.237   1.988   0.001  0.00  0.00    -0.360 N 
ATOM      6  C4  <0> d          -0.018   1.509   0.010  0.00  0.00     0.218 C 
ATOM      7  O1  <0> d          -1.022   2.190   0.019  0.00  0.00    -0.274 OA
ATOM      8  H2  <0> d          -0.203  -0.394   0.999  0.00  0.00     0.048 H 
ATOM      9  H3  <0> d          -0.721  -0.391  -0.716  0.00  0.00     0.048 H 
ATOM     10  H4  <0> d           2.641   0.765   0.993  0.00  0.00     0.065 H 
ATOM     11  H5  <0> d           3.018   1.114  -0.720  0.00  0.00     0.065 H 
ATOM     12  H6  <0> d           1.463   2.931  -0.002  0.00  0.00     0.162 HD
ENDROOT
BRANCH   2  13
ATOM     13  C5  <0> d           1.941  -1.579   0.301  0.00  0.00     0.221 C 
ATOM     14  O2  <0> d           1.227  -2.135   1.109  0.00  0.00    -0.273 OA
ATOM     15  N2  <0> d           3.180  -2.051   0.059  0.00  0.00    -0.370 N 
ATOM     16  H7  <0> d           3.751  -1.607  -0.587  0.00  0.00     0.159 HD
ATOM     17  H8  <0> d           3.501  -2.835   0.532  0.00  0.00     0.159 HD
ENDBRANCH   2  13
TORSDOF 1
