REMARK  4 active torsions:
REMARK  status: ('A' for Active; 'I' for Inactive)
REMARK    1  A    between atoms: C1_1  and  C2_2 
REMARK    2  A    between atoms: C2_2  and  C3_3 
REMARK    3  A    between atoms: C3_3  and  N1_4 
REMARK    4  A    between atoms: C5_6  and  N3_9 
ROOT
ATOM      1  N1  <0> d           1.073   1.894   0.002  0.00  0.00    -0.279 N 
ATOM      2  C4  <0> d          -0.013   1.076   0.008  0.00  0.00     0.025 A 
ATOM      3  C5  <0> d          -1.118   1.863   0.017  0.00  0.00     0.062 A 
ATOM      4  C6  <0> d          -0.695   3.200   0.026  0.00  0.00     0.048 A 
ATOM      5  N2  <0> d           0.614   3.217   0.013  0.00  0.00    -0.183 NA
ATOM      6  H8  <0> d           0.002  -0.004   0.002  0.00  0.00     0.117 H 
ATOM      7  H9  <0> d          -1.338   4.066   0.036  0.00  0.00     0.121 H 
ENDROOT
BRANCH   1   8
ATOM      8  C3  <0> d           2.475   1.468  -0.013  0.00  0.00     0.016 C 
ATOM      9  H6  <0> d           2.957   1.773   0.915  0.00  0.00     0.067 H 
ATOM     10  H7  <0> d           2.523   0.383  -0.109  0.00  0.00     0.067 H 
BRANCH   8  11
ATOM     11  C2  <0> d           3.192   2.117  -1.198  0.00  0.00    -0.052 C 
ATOM     12  H4  <0> d           2.710   1.812  -2.127  0.00  0.00     0.035 H 
ATOM     13  H5  <0> d           3.144   3.201  -1.103  0.00  0.00     0.035 H 
BRANCH  11  14
ATOM     14  C1  <0> d           4.656   1.671  -1.214  0.00  0.00    -0.075 C 
ATOM     15  H1  <0> d           4.705   0.587  -1.310  0.00  0.00     0.027 H 
ATOM     16  H2  <0> d           5.167   2.134  -2.059  0.00  0.00     0.027 H 
ATOM     17  H3  <0> d           5.139   1.976  -0.286  0.00  0.00     0.027 H 
ENDBRANCH  11  14
ENDBRANCH   8  11
ENDBRANCH   1   8
BRANCH   3  18
ATOM     18  N3  <0> d          -2.453   1.416   0.019  0.00  0.00    -0.397 N 
ATOM     19  H10 <0> d          -2.647   0.466   0.015  0.00  0.00     0.156 HD
ATOM     20  H11 <0> d          -3.180   2.059   0.026  0.00  0.00     0.156 HD
ENDBRANCH   3  18
TORSDOF 4
