REMARK  5 active torsions:
REMARK  status: ('A' for Active; 'I' for Inactive)
REMARK    1  A    between atoms: C1_1  and  C2_2 
REMARK    2  A    between atoms: C2_2  and  C3_3 
REMARK    3  A    between atoms: N2_7  and  C6_8 
REMARK    4  A    between atoms: C6_8  and  C7_9 
REMARK    5  A    between atoms: C6_8  and  C8_10 
ROOT
ATOM      1  C3  <0> d          -1.240   0.781   2.175  0.00  0.00     0.032 A 
ATOM      2  C4  <0> d          -1.772   1.598   3.114  0.00  0.00    -0.041 A 
ATOM      3  C5  <0> d          -1.557   2.919   2.707  0.00  0.00     0.024 A 
ATOM      4  N1  <0> d          -0.913   2.896   1.568  0.00  0.00    -0.184 NA
ATOM      5  N2  <0> d          -0.698   1.558   1.213  0.00  0.00    -0.270 N 
ATOM      6  H6  <0> d          -2.277   1.285   4.015  0.00  0.00     0.088 H 
ATOM      7  H7  <0> d          -1.868   3.804   3.241  0.00  0.00     0.117 H 
ENDROOT
BRANCH   5   8
ATOM      8  C6  <0> d          -0.013   1.086   0.008  0.00  0.00     0.028 C 
ATOM      9  H8  <0> d          -0.020  -0.014   0.041  0.00  0.00     0.074 H 
BRANCH   8  10
ATOM     10  C7  <0> d           1.423   1.615  -0.003  0.00  0.00    -0.056 C 
ATOM     11  H9  <0> d           1.938   1.261  -0.908  0.00  0.00     0.030 H 
ATOM     12  H10 <0> d           1.955   1.251   0.888  0.00  0.00     0.030 H 
ATOM     13  H11 <0> d           1.408   2.715   0.003  0.00  0.00     0.030 H 
ENDBRANCH   8  10
BRANCH   8  14
ATOM     14  C8  <0> d          -0.753   1.593  -1.232  0.00  0.00    -0.056 C 
ATOM     15  H12 <0> d          -0.238   1.238  -2.136  0.00  0.00     0.030 H 
ATOM     16  H13 <0> d          -0.767   2.693  -1.225  0.00  0.00     0.030 H 
ATOM     17  H14 <0> d          -1.785   1.212  -1.224  0.00  0.00     0.030 H 
ENDBRANCH   8  14
ENDBRANCH   5   8
BRANCH   1  18
ATOM     18  C2  <0> d          -1.246  -0.725   2.201  0.00  0.00    -0.028 C 
ATOM     19  H4  <0> d          -1.150  -1.075   3.239  0.00  0.00     0.041 H 
ATOM     20  H5  <0> d          -0.403  -1.106   1.605  0.00  0.00     0.041 H 
BRANCH  18  21
ATOM     21  C1  <0> d          -2.561  -1.240   1.610  0.00  0.00    -0.071 C 
ATOM     22  H1  <0> d          -2.566  -2.339   1.629  0.00  0.00     0.028 H 
ATOM     23  H2  <0> d          -2.658  -0.890   0.571  0.00  0.00     0.028 H 
ATOM     24  H3  <0> d          -3.404  -0.859   2.205  0.00  0.00     0.028 H 
ENDBRANCH  18  21
ENDBRANCH   1  18
TORSDOF 5
