REMARK  4 active torsions:
REMARK  status: ('A' for Active; 'I' for Inactive)
REMARK    1  A    between atoms: C1_1  and  C2_2 
REMARK    2  A    between atoms: C2_2  and  C3_3 
REMARK    3  A    between atoms: C3_3  and  N1_4 
REMARK    4  A    between atoms: N1_4  and  C4_5 
ROOT
ATOM      1  N1  <0> d           1.356   2.033   0.000  0.00  0.00    -0.373 N 
ATOM      2  H9  <0> d           2.102   1.413  -0.010  0.00  0.00     0.161 HD
ENDROOT
BRANCH   1   3
ATOM      3  C3  <0> d          -0.019   1.526   0.010  0.00  0.00    -0.006 C 
ATOM      4  H7  <0> d          -0.546   1.887  -0.873  0.00  0.00     0.064 H 
ATOM      5  H8  <0> d          -0.529   1.877   0.907  0.00  0.00     0.064 H 
BRANCH   3   6
ATOM      6  C2  <0> d           0.002  -0.004   0.002  0.00  0.00    -0.054 C 
ATOM      7  H5  <0> d           0.512  -0.356  -0.895  0.00  0.00     0.034 H 
ATOM      8  H6  <0> d           0.529  -0.365   0.885  0.00  0.00     0.034 H 
BRANCH   6   9
ATOM      9  C1  <0> d          -1.433  -0.534   0.013  0.00  0.00    -0.075 C 
ATOM     10  H2  <0> d          -1.944  -0.182   0.910  0.00  0.00     0.027 H 
ATOM     11  H3  <0> d          -1.960  -0.173  -0.870  0.00  0.00     0.027 H 
ATOM     12  H4  <0> d          -1.419  -1.623   0.007  0.00  0.00     0.027 H 
ENDBRANCH   6   9
ENDBRANCH   3   6
ENDBRANCH   1   3
BRANCH   1  13
ATOM     13  C4  <0> d           1.589   3.388   0.005  0.00  0.00     0.148 A 
ATOM     14  N4  <0> d           0.578   4.249   0.019  0.00  0.00    -0.174 NA
ATOM     15  C6  <0> d           0.840   5.559   0.024  0.00  0.00     0.364 A 
ATOM     16  N3  <0> d           2.111   6.001   0.014  0.00  0.00    -0.227 N 
ATOM     17  O1  <0> d          -0.080   6.361   0.037  0.00  0.00    -0.243 OA
ATOM     18  N2  <0> d           3.104   5.184  -0.000  0.00  0.00    -0.179 NA
ATOM     19  H1  <0> d           2.281   6.955   0.017  0.00  0.00     0.194 HD
ATOM     20  C5  <0> d           2.911   3.893   0.001  0.00  0.00     0.066 A 
ATOM     21  H10 <0> d           3.752   3.217  -0.006  0.00  0.00     0.123 H 
ENDBRANCH   1  13
TORSDOF 4
