REMARK  2 active torsions:
REMARK  status: ('A' for Active; 'I' for Inactive)
REMARK    1  A    between atoms: C1_1  and  C2_2 
REMARK    2  A    between atoms: C4_4  and  C7_8 
ROOT
ATOM      1  C2  <0> d           1.169   1.802   0.001  0.00  0.00    -0.044 A 
ATOM      2  C3  <0> d          -0.013   1.076   0.008  0.00  0.00    -0.069 A 
ATOM      3  C4  <0> d          -1.213   1.769   0.017  0.00  0.00    -0.044 A 
ATOM      4  C5  <0> d          -1.193   3.151   0.029  0.00  0.00     0.007 A 
ATOM      5  N1  <0> d          -0.050   3.809   0.022  0.00  0.00    -0.272 NA
ATOM      6  C6  <0> d           1.111   3.183   0.008  0.00  0.00     0.007 A 
ATOM      7  H4  <0> d           0.002  -0.004   0.002  0.00  0.00     0.085 H 
ATOM      8  H5  <0> d          -2.123   3.699   0.040  0.00  0.00     0.115 H 
ATOM      9  H6  <0> d           2.026   3.755   0.002  0.00  0.00     0.115 H 
ENDROOT
BRANCH   1  10
ATOM     10  C1  <0> d           2.499   1.094  -0.015  0.00  0.00    -0.050 C 
ATOM     11  H1  <0> d           2.811   0.928  -1.046  0.00  0.00     0.033 H 
ATOM     12  H2  <0> d           3.243   1.707   0.495  0.00  0.00     0.033 H 
ATOM     13  H3  <0> d           2.406   0.135   0.495  0.00  0.00     0.033 H 
ENDBRANCH   1  10
BRANCH   3  14
ATOM     14  C7  <0> d          -2.524   1.026   0.019  0.00  0.00    -0.050 C 
ATOM     15  H7  <0> d          -2.835   0.841   1.048  0.00  0.00     0.033 H 
ATOM     16  H8  <0> d          -3.281   1.623  -0.488  0.00  0.00     0.033 H 
ATOM     17  H9  <0> d          -2.403   0.075  -0.500  0.00  0.00     0.033 H 
ENDBRANCH   3  14
TORSDOF 2
