REMARK  2 active torsions:
REMARK  status: ('A' for Active; 'I' for Inactive)
REMARK    1  A    between atoms: C2_2  and  N3_10 
REMARK    2  A    between atoms: C4_5  and  C5_7 
ROOT
ATOM      1  C1  <0> d           0.116   5.078   0.028  0.00  0.00     0.031 A 
ATOM      2  C2  <0> d           1.342   5.747   0.020  0.00  0.00     0.061 A 
ATOM      3  C3  <0> d           2.513   4.985   0.005  0.00  0.00     0.031 A 
ATOM      4  N1  <0> d           2.421   3.670  -0.001  0.00  0.00    -0.233 NA
ATOM      5  C4  <0> d           1.238   3.071   0.007  0.00  0.00     0.227 A 
ATOM      6  N2  <0> d           0.105   3.760   0.016  0.00  0.00    -0.233 NA
ATOM      7  H1  <0> d          -0.811   5.633   0.040  0.00  0.00     0.118 H 
ATOM      8  H2  <0> d           3.479   5.467  -0.002  0.00  0.00     0.118 H 
ENDROOT
BRANCH   2   9
ATOM      9  N3  <0> d           1.396   7.136   0.028  0.00  0.00    -0.397 N 
ATOM     10  H3  <0> d           2.369   7.649   0.021  0.00  0.00     0.156 HD
ATOM     11  H4  <0> d           0.465   7.723   0.040  0.00  0.00     0.156 HD
ENDBRANCH   2   9
BRANCH   5  12
ATOM     12  C5  <0> d           1.181   1.591  -0.001  0.00  0.00     0.249 C 
ATOM     13  O1  <0> d           2.208   0.943  -0.014  0.00  0.00    -0.642 OA
ATOM     14  O2  <0> d          -0.011   0.963   0.007  0.00  0.00    -0.642 OA
ENDBRANCH   5  12
TORSDOF 2
