REMARK  3 active torsions:
REMARK  status: ('A' for Active; 'I' for Inactive)
REMARK    1  A    between atoms: C2_2  and  C3_3 
REMARK    2  A    between atoms: C3_3  and  C4_4 
REMARK    3  A    between atoms: C4_4  and  O2_10 
ROOT
ATOM      1  C1  <0> d           0.018  -1.178  -0.004  0.00  0.00    -0.154 C 
ATOM      2  C2  <0> d           0.002  -0.004   0.002  0.00  0.00    -0.115 C 
ATOM      3  H1  <0> d           0.032  -2.228  -0.010  0.00  0.00     0.166 H 
ENDROOT
BRANCH   2   4
ATOM      4  C3  <0> d          -0.018   1.468   0.010  0.00  0.00     0.019 C 
ATOM      5  H2  <0> d          -0.545   1.829  -0.873  0.00  0.00     0.056 H 
ATOM      6  H3  <0> d          -0.528   1.819   0.907  0.00  0.00     0.056 H 
BRANCH   4   7
ATOM      7  C4  <0> d           1.417   1.997  -0.001  0.00  0.00     0.072 C 
ATOM      8  C8  <0> d           1.402   3.523   0.133  0.00  0.00    -0.016 C 
ATOM      9  C7  <0> d           2.842   4.037   0.201  0.00  0.00     0.022 C 
ATOM     10  H10 <0> d           0.900   3.960  -0.730  0.00  0.00     0.040 H 
ATOM     11  H11 <0> d           0.872   3.803   1.044  0.00  0.00     0.040 H 
ATOM     12  O1  <0> d           3.516   3.419   1.299  0.00  0.00    -0.391 OA
ATOM     13  H8  <0> d           2.837   5.118   0.339  0.00  0.00     0.074 H 
ATOM     14  H9  <0> d           3.360   3.791  -0.727  0.00  0.00     0.074 H 
ATOM     15  C6  <0> d           3.603   1.996   1.205  0.00  0.00     0.022 C 
ATOM     16  C5  <0> d           2.193   1.400   1.178  0.00  0.00    -0.016 C 
ATOM     17  H6  <0> d           4.146   1.607   2.066  0.00  0.00     0.074 H 
ATOM     18  H7  <0> d           4.130   1.724   0.290  0.00  0.00     0.074 H 
ATOM     19  H4  <0> d           1.679   1.637   2.109  0.00  0.00     0.040 H 
ATOM     20  H5  <0> d           2.256   0.318   1.061  0.00  0.00     0.040 H 
BRANCH   7  21
ATOM     21  O2  <0> d           2.053   1.632  -1.228  0.00  0.00    -0.389 OA
ATOM     22  H12 <0> d           2.100   0.678  -1.377  0.00  0.00     0.210 HD
ENDBRANCH   7  21
ENDBRANCH   4   7
ENDBRANCH   2   4
TORSDOF 3
