REMARK  4 active torsions:
REMARK  status: ('A' for Active; 'I' for Inactive)
REMARK    1  A    between atoms: C1_1  and  C2_2 
REMARK    2  A    between atoms: C2_2  and  C3_4 
REMARK    3  A    between atoms: C2_2  and  C6_7 
REMARK       I    between atoms: C6_7  and  N1_9 
REMARK    4  A    between atoms: N1_9  and  C7_10 
ROOT
ATOM      1  C2  <0> d           0.002  -0.004   0.002  0.00  0.00     0.024 C 
ATOM      2  H1  <0> d           0.529  -0.365   0.885  0.00  0.00     0.054 H 
ENDROOT
BRANCH   1   3
ATOM      3  C1  <0> d          -0.019   1.526   0.010  0.00  0.00    -0.064 C 
ATOM      4  H2  <0> d           1.004   1.903   0.003  0.00  0.00     0.028 H 
ATOM      5  H3  <0> d          -0.546   1.887  -0.873  0.00  0.00     0.028 H 
ATOM      6  H4  <0> d          -0.529   1.877   0.907  0.00  0.00     0.028 H 
ENDBRANCH   1   3
BRANCH   1   7
ATOM      7  C3  <0> d           0.718  -0.497  -1.257  0.00  0.00    -0.043 A 
ATOM      8  C5  <0> d           2.175  -0.072  -1.454  0.00  0.00    -0.060 A 
ATOM      9  C4  <0> d           1.844  -1.518  -1.075  0.00  0.00    -0.060 A 
ATOM     10  H8  <0> d           2.510   0.117  -2.473  0.00  0.00     0.033 H 
ATOM     11  H9  <0> d           2.623   0.559  -0.686  0.00  0.00     0.033 H 
ATOM     12  H6  <0> d           2.075  -1.837  -0.059  0.00  0.00     0.033 H 
ATOM     13  H7  <0> d           1.962  -2.279  -1.846  0.00  0.00     0.033 H 
ATOM     14  H5  <0> d           0.096  -0.588  -2.147  0.00  0.00     0.041 H 
ENDBRANCH   1   7
BRANCH   1  15
ATOM     15  C6  <0> d          -1.412  -0.526   0.013  0.00  0.00     0.222 C 
ATOM     16  O1  <0> d          -1.808  -1.223  -0.897  0.00  0.00    -0.273 OA
ATOM     17  N1  <0> d          -2.236  -0.217   1.033  0.00  0.00    -0.356 N 
ATOM     18  H10 <0> d          -1.920   0.341   1.761  0.00  0.00     0.162 HD
BRANCH  17  19
ATOM     19  C7  <0> d          -3.611  -0.724   1.044  0.00  0.00     0.012 A 
ATOM     20  C9  <0> d          -4.301  -0.865   2.401  0.00  0.00    -0.044 A 
ATOM     21  C8  <0> d          -4.720   0.251   1.442  0.00  0.00    -0.044 A 
ATOM     22  H14 <0> d          -4.989  -1.700   2.532  0.00  0.00     0.036 H 
ATOM     23  H15 <0> d          -3.733  -0.580   3.287  0.00  0.00     0.036 H 
ATOM     24  H12 <0> d          -4.428   1.270   1.696  0.00  0.00     0.036 H 
ATOM     25  H13 <0> d          -5.683   0.149   0.942  0.00  0.00     0.036 H 
ATOM     26  H11 <0> d          -3.843  -1.467   0.281  0.00  0.00     0.072 H 
ENDBRANCH  17  19
ENDBRANCH   1  15
TORSDOF 4
