REMARK  3 active torsions:
REMARK  status: ('A' for Active; 'I' for Inactive)
REMARK    1  A    between atoms: C1_1  and  O1_2 
REMARK    2  A    between atoms: O1_2  and  C2_3 
REMARK    3  A    between atoms: C2_3  and  C3_5 
ROOT
ATOM      1  C3  <0> d          -1.244  -2.135   0.003  0.00  0.00     0.038 A 
ATOM      2  C4  <0> d          -1.761  -2.826   1.258  0.00  0.00    -0.037 A 
ATOM      3  H1  <0> d          -2.067  -2.169   2.071  0.00  0.00     0.042 H 
ATOM      4  C5  <0> d          -2.633  -2.793   0.012  0.00  0.00    -0.037 A 
ATOM      5  H2  <0> d          -3.498  -2.129   0.026  0.00  0.00     0.042 H 
ATOM      6  C6  <0> d          -2.791  -4.038  -0.858  0.00  0.00    -0.060 C 
ATOM      7  C7  <0> d          -2.454  -5.291  -0.050  0.00  0.00    -0.065 C 
ATOM      8  C8  <0> d          -1.052  -5.123   0.549  0.00  0.00    -0.065 C 
ATOM      9  C9  <0> d          -1.146  -4.144   1.703  0.00  0.00    -0.060 C 
ATOM     10  H6  <0> d          -0.454  -2.634  -0.560  0.00  0.00     0.056 H 
ATOM     11  H7  <0> d          -3.820  -4.102  -1.212  0.00  0.00     0.033 H 
ATOM     12  H8  <0> d          -2.120  -3.968  -1.714  0.00  0.00     0.033 H 
ATOM     13  H9  <0> d          -3.181  -5.417   0.751  0.00  0.00     0.033 H 
ATOM     14  H10 <0> d          -2.470  -6.163  -0.704  0.00  0.00     0.033 H 
ATOM     15  H11 <0> d          -0.691  -6.086   0.911  0.00  0.00     0.033 H 
ATOM     16  H12 <0> d          -0.373  -4.737  -0.211  0.00  0.00     0.033 H 
ATOM     17  H13 <0> d          -0.139  -3.963   2.078  0.00  0.00     0.033 H 
ATOM     18  H14 <0> d          -1.754  -4.573   2.501  0.00  0.00     0.033 H 
ENDROOT
BRANCH   1  19
ATOM     19  C2  <0> d          -1.185  -0.630   0.010  0.00  0.00     0.263 C 
ATOM     20  O2  <0> d          -2.208   0.015   0.023  0.00  0.00    -0.265 OA
BRANCH  19  21
ATOM     21  O1  <0> d           0.002  -0.004   0.002  0.00  0.00    -0.326 OA
BRANCH  21  22
ATOM     22  C1  <0> d          -0.017   1.425   0.010  0.00  0.00     0.013 C 
ATOM     23  H3  <0> d           1.005   1.802   0.002  0.00  0.00     0.067 H 
ATOM     24  H4  <0> d          -0.544   1.786  -0.873  0.00  0.00     0.067 H 
ATOM     25  H5  <0> d          -0.527   1.776   0.907  0.00  0.00     0.067 H 
ENDBRANCH  21  22
ENDBRANCH  19  21
ENDBRANCH   1  19
TORSDOF 3
