REMARK  2 active torsions:
REMARK  status: ('A' for Active; 'I' for Inactive)
REMARK    1  A    between atoms: C2_2  and  C5_9 
REMARK    2  A    between atoms: C5_9  and  C6_10 
ROOT
ATOM      1  C1  <0> d          -0.016   1.331   0.009  0.00  0.00     0.015 A 
ATOM      2  C2  <0> d           1.155   2.026   0.002  0.00  0.00     0.037 A 
ATOM      3  C3  <0> d           2.368   1.306  -0.013  0.00  0.00     0.254 A 
ATOM      4  O1  <0> d           3.439   1.889  -0.020  0.00  0.00    -0.268 OA
ATOM      5  N1  <0> d           2.317  -0.043  -0.020  0.00  0.00    -0.318 N 
ATOM      6  H1  <0> d           3.138  -0.560  -0.031  0.00  0.00     0.169 HD
ATOM      7  C4  <0> d           1.125  -0.671  -0.012  0.00  0.00     0.066 A 
ATOM      8  N2  <0> d           0.002  -0.004   0.002  0.00  0.00    -0.255 NA
ATOM      9  H2  <0> d          -0.958   1.859   0.026  0.00  0.00     0.115 H 
ATOM     10  H3  <0> d           1.097  -1.751  -0.018  0.00  0.00     0.143 H 
ENDROOT
BRANCH   2  11
ATOM     11  C5  <0> d           1.156   3.533   0.009  0.00  0.00     0.046 C 
ATOM     12  H4  <0> d           1.992   3.899  -0.586  0.00  0.00     0.056 H 
ATOM     13  H5  <0> d           0.220   3.899  -0.414  0.00  0.00     0.056 H 
BRANCH  11  14
ATOM     14  C6  <0> d           1.293   4.028   1.426  0.00  0.00     0.177 C 
ATOM     15  O2  <0> d           1.382   3.231   2.345  0.00  0.00    -0.648 OA
ATOM     16  O3  <0> d           1.315   5.226   1.654  0.00  0.00    -0.648 OA
ENDBRANCH  11  14
ENDBRANCH   2  11
TORSDOF 2
