REMARK  0 active torsions:
REMARK  status: ('A' for Active; 'I' for Inactive)
ROOT
ATOM      1  C1  <0> d          -0.019   1.528   0.010  0.00  0.00    -0.058 C 
ATOM      2  C2  <0> d           1.422   2.047  -0.001  0.00  0.00    -0.045 C 
ATOM      3  C3  <0> d           2.150   1.483  -1.224  0.00  0.00     0.023 C 
ATOM      4  O1  <0> d           2.106   0.055  -1.187  0.00  0.00    -0.355 OA
ATOM      5  C4  <0> d           0.785  -0.490  -1.220  0.00  0.00     0.163 C 
ATOM      6  C5  <0> d           0.002  -0.004   0.002  0.00  0.00    -0.013 C 
ATOM      7  C6  <0> d           0.863  -2.018  -1.199  0.00  0.00    -0.013 C 
ATOM      8  C7  <0> d           1.590  -2.503  -2.457  0.00  0.00    -0.058 C 
ATOM      9  C8  <0> d           0.857  -1.975  -3.693  0.00  0.00    -0.045 C 
ATOM     10  C9  <0> d           0.782  -0.448  -3.619  0.00  0.00     0.023 C 
ATOM     11  O2  <0> d           0.122  -0.063  -2.411  0.00  0.00    -0.355 OA
ATOM     12  H1  <0> d          -0.527   1.880   0.908  0.00  0.00     0.033 H 
ATOM     13  H2  <0> d          -0.544   1.890  -0.873  0.00  0.00     0.033 H 
ATOM     14  H3  <0> d           1.417   3.135  -0.050  0.00  0.00     0.036 H 
ATOM     15  H4  <0> d           1.933   1.724   0.907  0.00  0.00     0.036 H 
ATOM     16  H5  <0> d           1.663   1.838  -2.132  0.00  0.00     0.074 H 
ATOM     17  H6  <0> d           3.188   1.815  -1.214  0.00  0.00     0.074 H 
ATOM     18  H7  <0> d           0.483  -0.367   0.910  0.00  0.00     0.041 H 
ATOM     19  H8  <0> d          -1.019  -0.382  -0.046  0.00  0.00     0.041 H 
ATOM     20  H9  <0> d           1.410  -2.343  -0.314  0.00  0.00     0.041 H 
ATOM     21  H10 <0> d          -0.145  -2.434  -1.178  0.00  0.00     0.041 H 
ATOM     22  H11 <0> d           2.614  -2.130  -2.453  0.00  0.00     0.033 H 
ATOM     23  H12 <0> d           1.599  -3.593  -2.476  0.00  0.00     0.033 H 
ATOM     24  H13 <0> d           1.398  -2.270  -4.592  0.00  0.00     0.036 H 
ATOM     25  H14 <0> d          -0.152  -2.388  -3.723  0.00  0.00     0.036 H 
ATOM     26  H15 <0> d           1.791  -0.034  -3.629  0.00  0.00     0.074 H 
ATOM     27  H16 <0> d           0.225  -0.069  -4.475  0.00  0.00     0.074 H 
ENDROOT
TORSDOF 0
