REMARK  4 active torsions:
REMARK  status: ('A' for Active; 'I' for Inactive)
REMARK    1  A    between atoms: C1_1  and  C2_2 
REMARK    2  A    between atoms: C2_2  and  C5_6 
REMARK    3  A    between atoms: C3_3  and  C4_4 
REMARK    4  A    between atoms: C4_4  and  O1_5 
ROOT
ATOM      1  C5  <0> d           1.457   5.152   1.108  0.00  0.00    -0.083 C 
ATOM      2  C6  <0> d           1.151   6.271   1.289  0.00  0.00    -0.149 C 
ATOM      3  H8  <0> d           0.864   7.319   1.459  0.00  0.00     0.166 H 
ENDROOT
BRANCH   1   4
ATOM      4  C2  <0> d           1.831   3.788   0.886  0.00  0.00    -0.011 C 
ATOM      5  C3  <0> d           1.296   3.108  -0.123  0.00  0.00    -0.067 C 
ATOM      6  H4  <0> d           0.637   3.617  -0.841  0.00  0.00     0.081 H 
BRANCH   4   7
ATOM      7  C1  <0> d           2.829   3.122   1.798  0.00  0.00    -0.044 C 
ATOM      8  H1  <0> d           3.156   3.837   2.567  0.00  0.00     0.034 H 
ATOM      9  H2  <0> d           3.698   2.792   1.211  0.00  0.00     0.034 H 
ATOM     10  H3  <0> d           2.361   2.252   2.282  0.00  0.00     0.034 H 
ENDBRANCH   4   7
BRANCH   5  11
ATOM     11  C4  <0> d           1.594   1.639  -0.284  0.00  0.00     0.033 C 
ATOM     12  H5  <0> d           2.308   1.498  -1.109  0.00  0.00     0.080 H 
ATOM     13  H6  <0> d           2.029   1.249   0.648  0.00  0.00     0.080 H 
BRANCH  11  14
ATOM     14  O1  <0> d           0.384   0.937  -0.575  0.00  0.00    -0.397 OA
ATOM     15  H7  <0> d           0.403  -0.152  -0.727  0.00  0.00     0.209 HD
ENDBRANCH  11  14
ENDBRANCH   5  11
ENDBRANCH   1   4
TORSDOF 4
