REMARK  7 active torsions:
REMARK  status: ('A' for Active; 'I' for Inactive)
REMARK    1  A    between atoms: C1_1  and  C2_2 
REMARK    2  A    between atoms: C2_2  and  C3_3 
REMARK    3  A    between atoms: C3_3  and  N1_4 
REMARK    4  A    between atoms: N1_4  and  C4_5 
REMARK       I    between atoms: N1_4  and  C7_8 
REMARK    5  A    between atoms: C4_5  and  C5_6 
REMARK    6  A    between atoms: C5_6  and  C6_7 
REMARK    7  A    between atoms: C7_8  and  C8_10 
ROOT
ATOM      1  N1  <0> d           1.094   1.879  -0.004  0.00  0.00    -0.352 N 
ATOM      2  C7  <0> d          -0.085   1.227  -0.004  0.00  0.00     0.215 C 
ATOM      3  O1  <0> d          -1.124   1.852   0.021  0.00  0.00    -0.274 OA
ENDROOT
BRANCH   1   4
ATOM      4  C3  <0> d           1.122   3.342  -0.089  0.00  0.00    -0.003 C 
ATOM      5  H6  <0> d           1.989   3.656  -0.670  0.00  0.00     0.064 H 
ATOM      6  H7  <0> d           0.212   3.695  -0.575  0.00  0.00     0.064 H 
BRANCH   4   7
ATOM      7  C2  <0> d           1.210   3.933   1.319  0.00  0.00    -0.053 C 
ATOM      8  H4  <0> d           0.343   3.619   1.900  0.00  0.00     0.034 H 
ATOM      9  H5  <0> d           2.120   3.579   1.805  0.00  0.00     0.034 H 
BRANCH   7  10
ATOM     10  C1  <0> d           1.239   5.460   1.231  0.00  0.00    -0.075 C 
ATOM     11  H1  <0> d           0.330   5.813   0.745  0.00  0.00     0.027 H 
ATOM     12  H2  <0> d           1.302   5.881   2.235  0.00  0.00     0.027 H 
ATOM     13  H3  <0> d           2.107   5.774   0.650  0.00  0.00     0.027 H 
ENDBRANCH   7  10
ENDBRANCH   4   7
ENDBRANCH   1   4
BRANCH   1  14
ATOM     14  C4  <0> d           2.348   1.127   0.080  0.00  0.00    -0.003 C 
ATOM     15  H8  <0> d           3.127   1.763   0.500  0.00  0.00     0.064 H 
ATOM     16  H9  <0> d           2.207   0.255   0.719  0.00  0.00     0.064 H 
BRANCH  14  17
ATOM     17  C5  <0> d           2.764   0.670  -1.321  0.00  0.00    -0.053 C 
ATOM     18  H10 <0> d           1.985   0.034  -1.741  0.00  0.00     0.034 H 
ATOM     19  H11 <0> d           2.905   1.542  -1.960  0.00  0.00     0.034 H 
BRANCH  17  20
ATOM     20  C6  <0> d           4.073  -0.116  -1.233  0.00  0.00    -0.075 C 
ATOM     21  H12 <0> d           4.369  -0.441  -2.230  0.00  0.00     0.027 H 
ATOM     22  H13 <0> d           4.852   0.521  -0.812  0.00  0.00     0.027 H 
ATOM     23  H14 <0> d           3.932  -0.988  -0.594  0.00  0.00     0.027 H 
ENDBRANCH  17  20
ENDBRANCH  14  17
ENDBRANCH   1  14
BRANCH   2  24
ATOM     24  C8  <0> d          -0.112  -0.280  -0.026  0.00  0.00    -0.003 C 
ATOM     25  H15 <0> d          -0.039  -0.629  -1.056  0.00  0.00     0.040 H 
ATOM     26  H16 <0> d           0.728  -0.667   0.550  0.00  0.00     0.040 H 
ATOM     27  H17 <0> d          -1.046  -0.633   0.411  0.00  0.00     0.040 H 
ENDBRANCH   2  24
TORSDOF 7
