REMARK  5 active torsions:
REMARK  status: ('A' for Active; 'I' for Inactive)
REMARK    1  A    between atoms: C1_1  and  C2_2 
REMARK    2  A    between atoms: C2_2  and  N1_3 
REMARK    3  A    between atoms: N1_3  and  C3_4 
REMARK       I    between atoms: N1_3  and  C5_6 
REMARK    4  A    between atoms: C3_4  and  C4_5 
REMARK    5  A    between atoms: C5_6  and  O2_8 
ROOT
ATOM      1  N1  <0> d          -1.192   2.000   0.019  0.00  0.00    -0.330 N 
ATOM      2  C5  <0> d          -0.016   1.342   0.009  0.00  0.00     0.252 C 
ATOM      3  O1  <0> d           1.028   1.964   0.003  0.00  0.00    -0.632 OA
ENDROOT
BRANCH   1   4
ATOM      4  C2  <0> d          -1.212   3.465   0.027  0.00  0.00    -0.003 C 
ATOM      5  H4  <0> d          -2.105   3.813   0.547  0.00  0.00     0.064 H 
ATOM      6  H5  <0> d          -0.325   3.837   0.538  0.00  0.00     0.064 H 
BRANCH   4   7
ATOM      7  C1  <0> d          -1.226   3.983  -1.413  0.00  0.00    -0.061 C 
ATOM      8  H1  <0> d          -0.334   3.634  -1.933  0.00  0.00     0.029 H 
ATOM      9  H2  <0> d          -2.113   3.610  -1.925  0.00  0.00     0.029 H 
ATOM     10  H3  <0> d          -1.241   5.073  -1.407  0.00  0.00     0.029 H 
ENDBRANCH   4   7
ENDBRANCH   1   4
BRANCH   1  11
ATOM     11  C3  <0> d          -2.451   1.250   0.021  0.00  0.00    -0.003 C 
ATOM     12  H6  <0> d          -3.221   1.832  -0.487  0.00  0.00     0.064 H 
ATOM     13  H7  <0> d          -2.310   0.303  -0.499  0.00  0.00     0.064 H 
BRANCH  11  14
ATOM     14  C4  <0> d          -2.882   0.982   1.464  0.00  0.00    -0.061 C 
ATOM     15  H8  <0> d          -3.023   1.929   1.983  0.00  0.00     0.029 H 
ATOM     16  H9  <0> d          -3.819   0.424   1.465  0.00  0.00     0.029 H 
ATOM     17  H10 <0> d          -2.112   0.400   1.971  0.00  0.00     0.029 H 
ENDBRANCH  11  14
ENDBRANCH   1  11
BRANCH   2  18
ATOM     18  O2  <0> d           0.002  -0.004   0.002  0.00  0.00    -0.760 OA
ATOM     19  H11 <0> d          -0.854  -0.455   0.008  0.00  0.00     0.169 HD
ENDBRANCH   2  18
TORSDOF 5
