REMARK  2 active torsions:
REMARK  status: ('A' for Active; 'I' for Inactive)
REMARK    1  A    between atoms: C1_1  and  C3_4 
REMARK    2  A    between atoms: C4_5  and  N5_10 
ROOT
ATOM      1  C1  <0> d          -1.671   4.138   0.039  0.00  0.00     0.060 C 
ATOM      2  C2  <0> d          -1.992   4.526  -1.344  0.00  0.00     0.065 C 
ATOM      3  N1  <0> d          -2.240   4.826  -2.411  0.00  0.00    -0.197 NA
ATOM      4  H2  <0> d          -2.587   3.858   0.560  0.00  0.00     0.064 H 
ATOM      5  H3  <0> d          -1.202   4.977   0.553  0.00  0.00     0.064 H 
ENDROOT
BRANCH   1   6
ATOM      6  C3  <0> d          -0.724   2.966   0.024  0.00  0.00     0.116 A 
ATOM      7  N4  <0> d          -1.067   1.702   0.016  0.00  0.00    -0.157 NA
ATOM      8  N3  <0> d          -0.011   0.966   0.007  0.00  0.00    -0.195 N 
ATOM      9  N2  <0> d           1.116   1.799   0.001  0.00  0.00    -0.138 NA
ATOM     10  H1  <0> d           0.003  -0.034   0.006  0.00  0.00     0.213 HD
ATOM     11  C4  <0> d           0.673   3.040   0.011  0.00  0.00     0.170 A 
BRANCH  11  12
ATOM     12  N5  <0> d           1.449   4.206   0.010  0.00  0.00    -0.381 N 
ATOM     13  H4  <0> d           2.417   4.145   0.000  0.00  0.00     0.157 HD
ATOM     14  H5  <0> d           1.019   5.076   0.018  0.00  0.00     0.157 HD
ENDBRANCH  11  12
ENDBRANCH   1   6
TORSDOF 2
