REMARK  1 active torsions:
REMARK  status: ('A' for Active; 'I' for Inactive)
REMARK    1  A    between atoms: C1_1  and  C2_2 
ROOT
ATOM      1  C2  <0> d           0.002  -0.004   0.002  0.00  0.00    -0.059 A 
ATOM      2  C3  <0> d           0.006  -0.688  -1.200  0.00  0.00    -0.075 A 
ATOM      3  C4  <0> d           0.025  -2.070  -1.209  0.00  0.00    -0.058 A 
ATOM      4  C5  <0> d           0.040  -2.770  -0.016  0.00  0.00     0.072 A 
ATOM      5  C6  <0> d           0.036  -2.085   1.188  0.00  0.00     0.138 A 
ATOM      6  C7  <0> d           0.023  -0.701   1.195  0.00  0.00    -0.038 A 
ATOM      7  F1  <0> d           0.051  -2.768   2.354  0.00  0.00    -0.204 F 
ATOM      8 Cl1  <0> d           0.062  -4.506  -0.028  0.00  0.00    -0.081 Cl
ATOM      9  H4  <0> d          -0.006  -0.142  -2.131  0.00  0.00     0.084 H 
ATOM     10  H5  <0> d           0.027  -2.604  -2.148  0.00  0.00     0.086 H 
ATOM     11  H6  <0> d           0.025  -0.166   2.133  0.00  0.00     0.089 H 
ENDROOT
BRANCH   1  12
ATOM     12  C1  <0> d          -0.018   1.503   0.010  0.00  0.00    -0.051 C 
ATOM     13  H1  <0> d           1.004   1.880   0.003  0.00  0.00     0.033 H 
ATOM     14  H2  <0> d          -0.545   1.864  -0.873  0.00  0.00     0.033 H 
ATOM     15  H3  <0> d          -0.529   1.854   0.907  0.00  0.00     0.033 H 
ENDBRANCH   1  12
TORSDOF 1
