REMARK  1 active torsions:
REMARK  status: ('A' for Active; 'I' for Inactive)
REMARK    1  A    between atoms: C1_1  and  N1_2 
ROOT
ATOM      1  N1  <0> d           0.087   5.160   0.029  0.00  0.00    -0.329 N 
ATOM      2  C2  <0> d           1.438   5.329   0.018  0.00  0.00     0.068 A 
ATOM      3  N2  <0> d           2.033   4.172   0.005  0.00  0.00    -0.240 NA
ATOM      4  C3  <0> d           1.103   3.184   0.009  0.00  0.00     0.104 A 
ATOM      5  C4  <0> d          -0.160   3.804   0.024  0.00  0.00     0.159 A 
ATOM      6  N3  <0> d          -1.263   3.073   0.030  0.00  0.00    -0.241 NA
ATOM      7  C5  <0> d          -1.219   1.757   0.017  0.00  0.00     0.005 A 
ATOM      8  C6  <0> d          -0.013   1.076   0.008  0.00  0.00    -0.064 A 
ATOM      9  C7  <0> d           1.172   1.788   0.001  0.00  0.00    -0.050 A 
ATOM     10  H4  <0> d           1.942   6.284   0.018  0.00  0.00     0.143 H 
ATOM     11  H5  <0> d          -2.143   1.197   0.019  0.00  0.00     0.114 H 
ATOM     12  H6  <0> d           0.002  -0.004   0.002  0.00  0.00     0.085 H 
ATOM     13  H7  <0> d           2.125   1.279  -0.011  0.00  0.00     0.087 H 
ENDROOT
BRANCH   1  14
ATOM     14  C1  <0> d          -0.920   6.224   0.045  0.00  0.00    -0.012 C 
ATOM     15  H1  <0> d          -1.160   6.482   1.076  0.00  0.00     0.057 H 
ATOM     16  H2  <0> d          -0.527   7.102  -0.468  0.00  0.00     0.057 H 
ATOM     17  H3  <0> d          -1.821   5.879  -0.463  0.00  0.00     0.057 H 
ENDBRANCH   1  14
TORSDOF 1
