REMARK  3 active torsions:
REMARK  status: ('A' for Active; 'I' for Inactive)
REMARK    1  A    between atoms: C1_1  and  C2_2 
REMARK    2  A    between atoms: C2_2  and  C3_3 
REMARK    3  A    between atoms: C2_2  and  C4_4 
ROOT
ATOM      1  C4  <0> d          -1.412  -0.526   0.013  0.00  0.00    -0.016 A 
ATOM      2  C5  <0> d          -2.259  -0.204   1.056  0.00  0.00    -0.074 A 
ATOM      3  C6  <0> d          -3.556  -0.683   1.066  0.00  0.00    -0.082 A 
ATOM      4  C7  <0> d          -4.007  -1.483   0.033  0.00  0.00    -0.080 A 
ATOM      5  C8  <0> d          -3.162  -1.805  -1.012  0.00  0.00    -0.045 A 
ATOM      6  C9  <0> d          -1.864  -1.322  -1.026  0.00  0.00     0.123 A 
ATOM      7  F1  <0> d          -1.038  -1.633  -2.049  0.00  0.00    -0.206 F 
ATOM      8  H8  <0> d          -1.908   0.420   1.864  0.00  0.00     0.084 H 
ATOM      9  H9  <0> d          -4.218  -0.431   1.882  0.00  0.00     0.083 H 
ATOM     10  H10 <0> d          -5.020  -1.857   0.042  0.00  0.00     0.083 H 
ATOM     11  H11 <0> d          -3.514  -2.430  -1.819  0.00  0.00     0.088 H 
ENDROOT
BRANCH   1  12
ATOM     12  C2  <0> d           0.002  -0.004   0.002  0.00  0.00    -0.033 C 
ATOM     13  H4  <0> d           0.512  -0.356  -0.895  0.00  0.00     0.046 H 
BRANCH  12  14
ATOM     14  C1  <0> d          -0.019   1.526   0.010  0.00  0.00    -0.069 C 
ATOM     15  H1  <0> d           1.004   1.903   0.003  0.00  0.00     0.028 H 
ATOM     16  H2  <0> d          -0.546   1.887  -0.873  0.00  0.00     0.028 H 
ATOM     17  H3  <0> d          -0.529   1.877   0.907  0.00  0.00     0.028 H 
ENDBRANCH  12  14
BRANCH  12  18
ATOM     18  C3  <0> d           0.742  -0.511   1.242  0.00  0.00    -0.069 C 
ATOM     19  H5  <0> d           0.232  -0.159   2.138  0.00  0.00     0.028 H 
ATOM     20  H6  <0> d           0.757  -1.601   1.236  0.00  0.00     0.028 H 
ATOM     21  H7  <0> d           1.765  -0.134   1.234  0.00  0.00     0.028 H 
ENDBRANCH  12  18
ENDBRANCH   1  12
TORSDOF 3
