REMARK  4 active torsions:
REMARK  status: ('A' for Active; 'I' for Inactive)
REMARK    1  A    between atoms: C1_1  and  C2_2 
REMARK    2  A    between atoms: C2_2  and  C3_3 
REMARK    3  A    between atoms: C2_2  and  C4_4 
REMARK    4  A    between atoms: C2_2  and  C5_5 
ROOT
ATOM      1  C2  <0> d          -1.247   2.253   0.021  0.00  0.00    -0.007 C 
ENDROOT
BRANCH   1   2
ATOM      2  C1  <0> d          -0.831   3.725   0.026  0.00  0.00    -0.064 C 
ATOM      3  H3  <0> d          -0.242   3.940  -0.865  0.00  0.00     0.028 H 
ATOM      4  H4  <0> d          -1.721   4.354   0.034  0.00  0.00     0.028 H 
ATOM      5  H5  <0> d          -0.233   3.930   0.915  0.00  0.00     0.028 H 
ENDBRANCH   1   2
BRANCH   1   6
ATOM      6  C3  <0> d          -2.086   1.965  -1.226  0.00  0.00    -0.064 C 
ATOM      7  H6  <0> d          -2.383   0.916  -1.230  0.00  0.00     0.028 H 
ATOM      8  H7  <0> d          -2.976   2.594  -1.218  0.00  0.00     0.028 H 
ATOM      9  H8  <0> d          -1.497   2.180  -2.118  0.00  0.00     0.028 H 
ENDBRANCH   1   6
BRANCH   1  10
ATOM     10  C4  <0> d          -2.074   1.952   1.272  0.00  0.00    -0.064 C 
ATOM     11  H9  <0> d          -1.476   2.156   2.160  0.00  0.00     0.028 H 
ATOM     12  H10 <0> d          -2.964   2.581   1.280  0.00  0.00     0.028 H 
ATOM     13  H11 <0> d          -2.370   0.903   1.268  0.00  0.00     0.028 H 
ENDBRANCH   1  10
BRANCH   1  14
ATOM     14  C5  <0> d          -0.017   1.383   0.010  0.00  0.00     0.036 A 
ATOM     15  N2  <0> d           0.002  -0.004   0.002  0.00  0.00    -0.310 N 
ATOM     16  C7  <0> d           1.289  -0.404  -0.012  0.00  0.00     0.324 A 
ATOM     17  H2  <0> d          -0.775  -0.585   0.007  0.00  0.00     0.170 HD
ATOM     18  N1  <0> d           2.069   0.695  -0.014  0.00  0.00    -0.317 N 
ATOM     19  O1  <0> d           1.679  -1.557  -0.022  0.00  0.00    -0.247 OA
ATOM     20  C6  <0> d           1.242   1.809  -0.000  0.00  0.00     0.004 A 
ATOM     21  H1  <0> d           3.039   0.706  -0.023  0.00  0.00     0.170 HD
ATOM     22  H12 <0> d           1.564   2.840   0.002  0.00  0.00     0.114 H 
ENDBRANCH   1  14
TORSDOF 4
