REMARK  1 active torsions:
REMARK  status: ('A' for Active; 'I' for Inactive)
REMARK    1  A    between atoms: C4_4  and  C7_7 
ROOT
ATOM      1  C7  <0> d           3.711  -0.707  -0.038  0.00  0.00     0.038 C 
ATOM      2  C8  <0> d           4.154  -0.954   1.345  0.00  0.00     0.063 C 
ATOM      3  N1  <0> d           4.496  -1.144   2.411  0.00  0.00    -0.197 NA
ATOM      4  H6  <0> d           3.588  -1.659  -0.555  0.00  0.00     0.062 H 
ATOM      5  H7  <0> d           4.457  -0.105  -0.556  0.00  0.00     0.062 H 
ENDROOT
BRANCH   1   6
ATOM      6  C4  <0> d           2.396   0.029  -0.020  0.00  0.00    -0.045 A 
ATOM      7  C3  <0> d           2.377   1.411  -0.013  0.00  0.00    -0.076 A 
ATOM      8  C2  <0> d           1.171   2.086   0.002  0.00  0.00    -0.082 A 
ATOM      9  H3  <0> d           3.305   1.963  -0.020  0.00  0.00     0.084 H 
ATOM     10  C1  <0> d          -0.017   1.378   0.010  0.00  0.00    -0.083 A 
ATOM     11  H2  <0> d           1.156   3.165   0.008  0.00  0.00     0.083 H 
ATOM     12  C6  <0> d           0.002  -0.004   0.002  0.00  0.00    -0.082 A 
ATOM     13  H1  <0> d          -0.959   1.905   0.026  0.00  0.00     0.083 H 
ATOM     14  C5  <0> d           1.208  -0.679  -0.012  0.00  0.00    -0.076 A 
ATOM     15  H5  <0> d          -0.926  -0.557   0.008  0.00  0.00     0.083 H 
ATOM     16  H4  <0> d           1.223  -1.759  -0.018  0.00  0.00     0.084 H 
ENDBRANCH   1   6
TORSDOF 1
