REMARK  4 active torsions:
REMARK  status: ('A' for Active; 'I' for Inactive)
REMARK    1  A    between atoms: C1_1  and  C2_2 
REMARK    2  A    between atoms: C2_2  and  O1_3 
REMARK    3  A    between atoms: O1_3  and  C3_4 
REMARK    4  A    between atoms: C7_9  and  N2_10 
ROOT
ATOM      1  C3  <0> d           0.002  -0.004   0.002  0.00  0.00     0.097 A 
ATOM      2  C4  <0> d           1.205  -0.701  -0.019  0.00  0.00    -0.032 A 
ATOM      3  C5  <0> d           1.183  -2.082  -0.020  0.00  0.00     0.004 A 
ATOM      4  N1  <0> d           0.041  -2.742  -0.013  0.00  0.00    -0.271 NA
ATOM      5  C6  <0> d          -1.124  -2.122   0.001  0.00  0.00     0.030 A 
ATOM      6  C7  <0> d          -1.188  -0.738   0.009  0.00  0.00     0.077 A 
ATOM      7  H6  <0> d           2.145  -0.169  -0.030  0.00  0.00     0.090 H 
ATOM      8  H7  <0> d           2.114  -2.629  -0.031  0.00  0.00     0.114 H 
ATOM      9  H8  <0> d          -2.036  -2.699   0.007  0.00  0.00     0.118 H 
ENDROOT
BRANCH   1  10
ATOM     10  O1  <0> d          -0.016   1.354   0.009  0.00  0.00    -0.349 OA
BRANCH  10  11
ATOM     11  C2  <0> d           1.248   2.020   0.001  0.00  0.00     0.023 C 
ATOM     12  H4  <0> d           1.817   1.730   0.884  0.00  0.00     0.074 H 
ATOM     13  H5  <0> d           1.800   1.740  -0.896  0.00  0.00     0.074 H 
BRANCH  11  14
ATOM     14  C1  <0> d           1.027   3.534   0.011  0.00  0.00    -0.056 C 
ATOM     15  H1  <0> d           0.458   3.824  -0.872  0.00  0.00     0.030 H 
ATOM     16  H2  <0> d           0.474   3.815   0.908  0.00  0.00     0.030 H 
ATOM     17  H3  <0> d           1.991   4.042   0.005  0.00  0.00     0.030 H 
ENDBRANCH  11  14
ENDBRANCH  10  11
ENDBRANCH   1  10
BRANCH   6  18
ATOM     18  N2  <0> d          -2.426  -0.084   0.024  0.00  0.00    -0.396 N 
ATOM     19  H9  <0> d          -2.462   0.886   0.029  0.00  0.00     0.156 HD
ATOM     20  H10 <0> d          -3.247  -0.600   0.029  0.00  0.00     0.156 HD
ENDBRANCH   6  18
TORSDOF 4
