REMARK  4 active torsions:
REMARK  status: ('A' for Active; 'I' for Inactive)
REMARK    1  A    between atoms: C2_2  and  O4_12 
REMARK    2  A    between atoms: C3_4  and  O3_11 
REMARK    3  A    between atoms: C4_6  and  C5_9 
REMARK    4  A    between atoms: C5_9  and  O2_10 
ROOT
ATOM      1  C1  <0> d           2.062   1.192   1.282  0.00  0.00     0.046 C 
ATOM      2  C2  <0> d           1.286   1.562  -0.002  0.00  0.00     0.083 C 
ATOM      3  H1  <0> d           1.842   1.253  -0.887  0.00  0.00     0.090 H 
ATOM      4  C3  <0> d           1.172   3.102   0.056  0.00  0.00     0.089 C 
ATOM      5  H2  <0> d           0.126   3.406   0.091  0.00  0.00     0.091 H 
ATOM      6  C4  <0> d           1.893   3.479   1.372  0.00  0.00     0.086 C 
ATOM      7  H3  <0> d           1.175   3.570   2.187  0.00  0.00     0.090 H 
ATOM      8  O1  <0> d           2.801   2.385   1.623  0.00  0.00    -0.378 OA
ATOM      9  H4  <0> d           1.370   0.932   2.082  0.00  0.00     0.078 H 
ATOM     10  H5  <0> d           2.746   0.365   1.087  0.00  0.00     0.078 H 
ENDROOT
BRANCH   6  11
ATOM     11  C5  <0> d           2.669   4.786   1.200  0.00  0.00     0.043 C 
ATOM     12  H6  <0> d           3.433   4.657   0.433  0.00  0.00     0.078 H 
ATOM     13  H7  <0> d           1.984   5.579   0.899  0.00  0.00     0.078 H 
BRANCH  11  14
ATOM     14  O2  <0> d           3.291   5.139   2.437  0.00  0.00    -0.398 OA
ATOM     15  H8  <0> d           3.801   5.959   2.401  0.00  0.00     0.209 HD
ENDBRANCH  11  14
ENDBRANCH   6  11
BRANCH   4  16
ATOM     16  O3  <0> d           1.830   3.695  -1.066  0.00  0.00    -0.390 OA
ATOM     17  H9  <0> d           1.456   3.440  -1.921  0.00  0.00     0.210 HD
ENDBRANCH   4  16
BRANCH   2  18
ATOM     18  O4  <0> d          -0.011   0.963   0.007  0.00  0.00    -0.391 OA
ATOM     19  H10 <0> d           0.002  -0.004   0.002  0.00  0.00     0.210 HD
ENDBRANCH   2  18
TORSDOF 4
