REMARK  3 active torsions:
REMARK  status: ('A' for Active; 'I' for Inactive)
REMARK    1  A    between atoms: C4_6  and  C5_8 
REMARK    2  A    between atoms: C5_8  and  C6_9 
REMARK    3  A    between atoms: C6_9  and  C7_10 
ROOT
ATOM      1  C1  <0> d          -2.167   5.854  -0.019  0.00  0.00    -0.038 C 
ATOM      2  C2  <0> d          -2.172   6.229   1.481  0.00  0.00     0.011 C 
ATOM      3  C3  <0> d          -2.993   5.138   2.133  0.00  0.00     0.217 C 
ATOM      4  O1  <0> d          -3.473   5.201   3.246  0.00  0.00    -0.274 OA
ATOM      5  N1  <0> d          -3.113   4.090   1.301  0.00  0.00    -0.356 N 
ATOM      6  C4  <0> d          -2.407   4.329   0.037  0.00  0.00     0.013 C 
ATOM      7  H1  <0> d          -3.023   4.011  -0.804  0.00  0.00     0.072 H 
ATOM      8  H2  <0> d          -1.203   6.080  -0.475  0.00  0.00     0.036 H 
ATOM      9  H3  <0> d          -2.976   6.356  -0.550  0.00  0.00     0.036 H 
ATOM     10  H4  <0> d          -2.643   7.201   1.629  0.00  0.00     0.047 H 
ATOM     11  H5  <0> d          -1.158   6.232   1.879  0.00  0.00     0.047 H 
ATOM     12  H6  <0> d          -3.603   3.279   1.510  0.00  0.00     0.162 HD
ENDROOT
BRANCH   6  13
ATOM     13  C5  <0> d          -1.072   3.582   0.027  0.00  0.00    -0.037 C 
ATOM     14  H7  <0> d          -0.500   3.848   0.915  0.00  0.00     0.036 H 
ATOM     15  H8  <0> d          -0.508   3.857  -0.865  0.00  0.00     0.036 H 
BRANCH  13  16
ATOM     16  C6  <0> d          -1.331   2.074   0.020  0.00  0.00     0.018 C 
ATOM     17  H9  <0> d          -1.903   1.808  -0.869  0.00  0.00     0.049 H 
ATOM     18  H10 <0> d          -1.895   1.798   0.911  0.00  0.00     0.049 H 
BRANCH  16  19
ATOM     19  C7  <0> d          -0.016   1.338   0.009  0.00  0.00     0.172 C 
ATOM     20  O2  <0> d           1.022   1.956   0.003  0.00  0.00    -0.648 OA
ATOM     21  O3  <0> d           0.002  -0.004   0.002  0.00  0.00    -0.648 OA
ENDBRANCH  16  19
ENDBRANCH  13  16
ENDBRANCH   6  13
TORSDOF 3
