REMARK  2 active torsions:
REMARK  status: ('A' for Active; 'I' for Inactive)
REMARK    1  A    between atoms: C1_1  and  C2_2 
REMARK    2  A    between atoms: C5_5  and  N1_9 
ROOT
ATOM      1  C2  <0> d           0.002  -0.004   0.002  0.00  0.00    -0.020 A 
ATOM      2  C3  <0> d           0.006  -0.688  -1.200  0.00  0.00    -0.035 A 
ATOM      3  C4  <0> d           0.025  -2.070  -1.211  0.00  0.00     0.143 A 
ATOM      4  C5  <0> d           0.041  -2.773  -0.011  0.00  0.00     0.067 A 
ATOM      5  C6  <0> d           0.037  -2.085   1.193  0.00  0.00    -0.017 A 
ATOM      6  C7  <0> d           0.023  -0.701   1.198  0.00  0.00     0.124 A 
ATOM      7  F1  <0> d           0.025  -0.030   2.370  0.00  0.00    -0.205 F 
ATOM      8  F2  <0> d           0.028  -2.737  -2.386  0.00  0.00    -0.204 F 
ATOM      9  H4  <0> d          -0.007  -0.141  -2.132  0.00  0.00     0.089 H 
ATOM     10  H5  <0> d           0.049  -2.629   2.127  0.00  0.00     0.091 H 
ENDROOT
BRANCH   1  11
ATOM     11  C1  <0> d          -0.018   1.503   0.010  0.00  0.00    -0.048 C 
ATOM     12  H1  <0> d           1.004   1.880   0.003  0.00  0.00     0.033 H 
ATOM     13  H2  <0> d          -0.545   1.864  -0.873  0.00  0.00     0.033 H 
ATOM     14  H3  <0> d          -0.529   1.854   0.907  0.00  0.00     0.033 H 
ENDBRANCH   1  11
BRANCH   4  15
ATOM     15  N1  <0> d           0.059  -4.172  -0.019  0.00  0.00    -0.397 N 
ATOM     16  H6  <0> d           0.062  -4.652  -0.862  0.00  0.00     0.156 HD
ATOM     17  H7  <0> d           0.070  -4.661   0.818  0.00  0.00     0.156 HD
ENDBRANCH   4  15
TORSDOF 2
