REMARK  2 active torsions:
REMARK  status: ('A' for Active; 'I' for Inactive)
REMARK    1  A    between atoms: C1_1  and  C2_2 
REMARK    2  A    between atoms: N1_5  and  C5_7 
ROOT
ATOM      1  C2  <0> d          -1.025   2.235   3.285  0.00  0.00     0.054 A 
ATOM      2  C3  <0> d          -2.254   2.233   2.629  0.00  0.00    -0.020 A 
ATOM      3  C4  <0> d          -2.036   1.813   1.332  0.00  0.00     0.134 A 
ATOM      4  N1  <0> d          -0.698   1.558   1.213  0.00  0.00    -0.264 N 
ATOM      5  N2  <0> d          -0.100   1.835   2.449  0.00  0.00    -0.177 NA
ATOM      6  C6  <0> d          -3.024   1.670   0.306  0.00  0.00     0.119 C 
ATOM      7  N3  <0> d          -3.808   1.556  -0.508  0.00  0.00    -0.190 NA
ATOM      8  H4  <0> d          -3.205   2.513   3.057  0.00  0.00     0.091 H 
ENDROOT
BRANCH   4   9
ATOM      9  C5  <0> d          -0.013   1.086   0.008  0.00  0.00     0.004 C 
ATOM     10  H5  <0> d           0.002  -0.004   0.002  0.00  0.00     0.059 H 
ATOM     11  H6  <0> d           1.010   1.463   0.000  0.00  0.00     0.059 H 
ATOM     12  H7  <0> d          -0.540   1.447  -0.875  0.00  0.00     0.059 H 
ENDBRANCH   4   9
BRANCH   1  13
ATOM     13  C1  <0> d          -0.798   2.632   4.721  0.00  0.00    -0.034 C 
ATOM     14  H1  <0> d          -0.588   3.700   4.774  0.00  0.00     0.035 H 
ATOM     15  H2  <0> d          -1.690   2.408   5.306  0.00  0.00     0.035 H 
ATOM     16  H3  <0> d           0.049   2.075   5.122  0.00  0.00     0.035 H 
ENDBRANCH   1  13
TORSDOF 2
