REMARK  2 active torsions:
REMARK  status: ('A' for Active; 'I' for Inactive)
REMARK    1  A    between atoms: C1_1  and  C2_2 
REMARK    2  A    between atoms: C11_11  and  O1_12 
ROOT
ATOM      1  C2  <0> d           0.002  -0.004   0.002  0.00  0.00    -0.018 A 
ATOM      2  C3  <0> d           0.006  -0.704  -1.216  0.00  0.00    -0.017 A 
ATOM      3  C4  <0> d          -0.009  -0.025  -2.447  0.00  0.00    -0.072 A 
ATOM      4  C5  <0> d          -0.004  -0.735  -3.608  0.00  0.00    -0.082 A 
ATOM      5  C6  <0> d           0.015  -2.128  -3.596  0.00  0.00    -0.082 A 
ATOM      6  C7  <0> d           0.029  -2.819  -2.424  0.00  0.00    -0.072 A 
ATOM      7  C8  <0> d           0.026  -2.121  -1.204  0.00  0.00    -0.025 A 
ATOM      8  C9  <0> d           0.041  -2.802   0.025  0.00  0.00    -0.070 A 
ATOM      9  C10 <0> d           0.037  -2.095   1.188  0.00  0.00    -0.050 A 
ATOM     10  C11 <0> d           0.023  -0.697   1.179  0.00  0.00     0.072 A 
ATOM     11  H4  <0> d          -0.024   1.055  -2.471  0.00  0.00     0.084 H 
ATOM     12  H5  <0> d          -0.016  -0.210  -4.552  0.00  0.00     0.083 H 
ATOM     13  H6  <0> d           0.017  -2.668  -4.532  0.00  0.00     0.083 H 
ATOM     14  H7  <0> d           0.043  -3.899  -2.431  0.00  0.00     0.084 H 
ATOM     15  H8  <0> d           0.056  -3.881   0.047  0.00  0.00     0.085 H 
ATOM     16  H9  <0> d           0.049  -2.622   2.130  0.00  0.00     0.087 H 
ENDROOT
BRANCH   1  17
ATOM     17  C1  <0> d          -0.018   1.503   0.010  0.00  0.00    -0.048 C 
ATOM     18  H1  <0> d           1.004   1.880   0.003  0.00  0.00     0.033 H 
ATOM     19  H2  <0> d          -0.545   1.864  -0.873  0.00  0.00     0.033 H 
ATOM     20  H3  <0> d          -0.529   1.854   0.907  0.00  0.00     0.033 H 
ENDBRANCH   1  17
BRANCH  10  21
ATOM     21  O1  <0> d           0.025  -0.019   2.356  0.00  0.00    -0.360 OA
ATOM     22  H10 <0> d          -0.858   0.165   2.705  0.00  0.00     0.217 HD
ENDBRANCH  10  21
TORSDOF 2
