REMARK  3 active torsions:
REMARK  status: ('A' for Active; 'I' for Inactive)
REMARK    1  A    between atoms: C1_1  and  C2_2 
REMARK    2  A    between atoms: C4_6  and  C9_13 
REMARK    3  A    between atoms: C6_8  and  C8_12 
ROOT
ATOM      1  C2  <0> d           0.727   3.192   0.004  0.00  0.00     0.030 A 
ATOM      2  H1  <0> d           1.123   3.675   0.896  0.00  0.00     0.055 H 
ATOM      3  C3  <0> d          -0.811   3.243   0.007  0.00  0.00     0.006 A 
ATOM      4  H2  <0> d          -1.241   3.883   0.778  0.00  0.00     0.052 H 
ATOM      5  C4  <0> d          -1.414   3.388  -1.367  0.00  0.00    -0.077 A 
ATOM      6  C5  <0> d          -1.767   2.126  -1.340  0.00  0.00    -0.074 A 
ATOM      7  C6  <0> d          -1.234   1.765   0.017  0.00  0.00     0.056 A 
ATOM      8  N1  <0> d          -0.011   0.966   0.007  0.00  0.00    -0.348 N 
ATOM      9  C7  <0> d           1.089   1.728   0.001  0.00  0.00     0.223 A 
ATOM     10  O1  <0> d           2.223   1.299  -0.006  0.00  0.00    -0.273 OA
ATOM     11  H6  <0> d          -2.283   1.526  -2.074  0.00  0.00     0.081 H 
ATOM     12  H7  <0> d           0.002  -0.004   0.002  0.00  0.00     0.163 HD
ENDROOT
BRANCH   1  13
ATOM     13  C1  <0> d           1.275   3.873  -1.252  0.00  0.00    -0.064 C 
ATOM     14  H3  <0> d           0.868   3.385  -2.137  0.00  0.00     0.028 H 
ATOM     15  H4  <0> d           0.986   4.924  -1.251  0.00  0.00     0.028 H 
ATOM     16  H5  <0> d           2.363   3.796  -1.262  0.00  0.00     0.028 H 
ENDBRANCH   1  13
BRANCH   7  17
ATOM     17  C8  <0> d          -2.266   1.356   1.070  0.00  0.00    -0.049 C 
ATOM     18  H8  <0> d          -1.854   1.522   2.066  0.00  0.00     0.031 H 
ATOM     19  H9  <0> d          -3.169   1.953   0.946  0.00  0.00     0.031 H 
ATOM     20  H10 <0> d          -2.509   0.300   0.949  0.00  0.00     0.031 H 
ENDBRANCH   7  17
BRANCH   5  21
ATOM     21  C9  <0> d          -1.554   4.515  -2.358  0.00  0.00    -0.054 C 
ATOM     22  H11 <0> d          -0.687   4.526  -3.020  0.00  0.00     0.033 H 
ATOM     23  H12 <0> d          -2.459   4.370  -2.948  0.00  0.00     0.033 H 
ATOM     24  H13 <0> d          -1.615   5.463  -1.824  0.00  0.00     0.033 H 
ENDBRANCH   5  21
TORSDOF 3
