REMARK  0 active torsions:
REMARK  status: ('A' for Active; 'I' for Inactive)
ROOT
ATOM      1  C1  <0> d          -4.305   1.026   2.297  0.00  0.00    -0.066 A 
ATOM      2  C2  <0> d          -2.950   1.306   2.352  0.00  0.00    -0.074 A 
ATOM      3  C3  <0> d          -2.208   1.264   1.176  0.00  0.00    -0.033 A 
ATOM      4  C4  <0> d          -2.838   0.940  -0.004  0.00  0.00     0.040 A 
ATOM      5  N1  <0> d          -4.139   0.680  -0.015  0.00  0.00    -0.265 NA
ATOM      6  C5  <0> d          -4.873   0.714   1.077  0.00  0.00     0.003 A 
ATOM      7  C6  <0> d          -2.101   0.865  -1.317  0.00  0.00    -0.024 C 
ATOM      8  C7  <0> d          -0.765   1.599  -1.226  0.00  0.00    -0.060 C 
ATOM      9  C8  <0> d          -0.013   1.086   0.008  0.00  0.00    -0.061 C 
ATOM     10  C9  <0> d          -0.738   1.584   1.257  0.00  0.00    -0.039 C 
ATOM     11  H1  <0> d          -4.908   1.052   3.193  0.00  0.00     0.085 H 
ATOM     12  H2  <0> d          -2.478   1.554   3.291  0.00  0.00     0.084 H 
ATOM     13  H3  <0> d          -5.928   0.495   1.018  0.00  0.00     0.114 H 
ATOM     14  H4  <0> d          -2.709   1.321  -2.098  0.00  0.00     0.042 H 
ATOM     15  H5  <0> d          -1.920  -0.181  -1.567  0.00  0.00     0.042 H 
ATOM     16  H6  <0> d          -0.941   2.670  -1.128  0.00  0.00     0.033 H 
ATOM     17  H7  <0> d          -0.175   1.405  -2.121  0.00  0.00     0.033 H 
ATOM     18  H8  <0> d           0.002  -0.004   0.002  0.00  0.00     0.033 H 
ATOM     19  H9  <0> d           1.008   1.467   0.000  0.00  0.00     0.033 H 
ATOM     20  H10 <0> d          -0.312   1.102   2.136  0.00  0.00     0.040 H 
ATOM     21  H11 <0> d          -0.610   2.663   1.341  0.00  0.00     0.040 H 
ENDROOT
TORSDOF 0
