REMARK  2 active torsions:
REMARK  status: ('A' for Active; 'I' for Inactive)
REMARK    1  A    between atoms: C3_3  and  C6_10 
REMARK       I    between atoms: N1_5  and  C5_7 
REMARK       I    between atoms: C5_7  and  N2_9 
REMARK    2  A    between atoms: C6_10  and  O2_11 
ROOT
ATOM      1  C1  <0> d          -0.019   1.545   0.011  0.00  0.00    -0.048 C 
ATOM      2  C2  <0> d           1.497   1.877  -0.002  0.00  0.00    -0.043 C 
ATOM      3  C3  <0> d           2.088   0.760  -0.887  0.00  0.00     0.036 C 
ATOM      4  H1  <0> d           2.213   1.122  -1.907  0.00  0.00     0.076 H 
ATOM      5  N1  <0> d           1.137  -0.361  -0.869  0.00  0.00    -0.328 N 
ATOM      6  C4  <0> d           0.002  -0.004   0.002  0.00  0.00    -0.000 C 
ATOM      7  C5  <0> d           1.278  -1.523  -1.538  0.00  0.00     0.316 C 
ATOM      8  O1  <0> d           2.260  -1.710  -2.231  0.00  0.00    -0.247 OA
ATOM      9  N2  <0> d           0.332  -2.477  -1.438  0.00  0.00    -0.352 N 
ATOM     10  H2  <0> d          -0.494   1.924   0.915  0.00  0.00     0.035 H 
ATOM     11  H3  <0> d          -0.512   1.934  -0.881  0.00  0.00     0.035 H 
ATOM     12  H4  <0> d           1.673   2.856  -0.448  0.00  0.00     0.036 H 
ATOM     13  H5  <0> d           1.910   1.830   1.005  0.00  0.00     0.036 H 
ATOM     14  H6  <0> d           0.162  -0.387   1.010  0.00  0.00     0.064 H 
ATOM     15  H7  <0> d          -0.929  -0.394  -0.409  0.00  0.00     0.064 H 
ATOM     16  H8  <0> d          -0.451  -2.328  -0.885  0.00  0.00     0.160 HD
ATOM     17  H9  <0> d           0.434  -3.313  -1.920  0.00  0.00     0.160 HD
ENDROOT
BRANCH   3  18
ATOM     18  C6  <0> d           3.438   0.310  -0.325  0.00  0.00     0.036 C 
ATOM     19  H10 <0> d           4.096   1.174  -0.225  0.00  0.00     0.077 H 
ATOM     20  H11 <0> d           3.290  -0.149   0.652  0.00  0.00     0.077 H 
BRANCH  18  21
ATOM     21  O2  <0> d           4.031  -0.640  -1.213  0.00  0.00    -0.399 OA
ATOM     22  H12 <0> d           4.892  -0.969  -0.919  0.00  0.00     0.209 HD
ENDBRANCH  18  21
ENDBRANCH   3  18
TORSDOF 2
