REMARK  2 active torsions:
REMARK  status: ('A' for Active; 'I' for Inactive)
REMARK    1  A    between atoms: C1_1  and  N1_2 
REMARK    2  A    between atoms: C4_5  and  C5_7 
ROOT
ATOM      1  N1  <0> d           0.618   5.107   0.024  0.00  0.00    -0.262 N 
ATOM      2  C2  <0> d           1.973   5.145   0.011  0.00  0.00     0.124 A 
ATOM      3  C3  <0> d           2.408   3.862   0.005  0.00  0.00    -0.008 A 
ATOM      4  C4  <0> d           1.238   3.066   0.007  0.00  0.00     0.156 A 
ATOM      5  N2  <0> d           0.209   3.889   0.021  0.00  0.00    -0.165 NA
ATOM      6 Cl1  <0> d           2.965   6.570   0.008  0.00  0.00    -0.063 Cl
ATOM      7  H4  <0> d           3.432   3.519  -0.001  0.00  0.00     0.092 H 
ENDROOT
BRANCH   1   8
ATOM      8  C1  <0> d          -0.254   6.285   0.040  0.00  0.00     0.004 C 
ATOM      9  H1  <0> d          -0.460   6.571   1.071  0.00  0.00     0.059 H 
ATOM     10  H2  <0> d           0.239   7.109  -0.474  0.00  0.00     0.059 H 
ATOM     11  H3  <0> d          -1.191   6.050  -0.466  0.00  0.00     0.059 H 
ENDBRANCH   1   8
BRANCH   4  12
ATOM     12  C5  <0> d           1.181   1.591  -0.001  0.00  0.00     0.230 C 
ATOM     13  O1  <0> d           2.209   0.943  -0.014  0.00  0.00    -0.643 OA
ATOM     14  O2  <0> d          -0.011   0.963   0.007  0.00  0.00    -0.643 OA
ENDBRANCH   4  12
TORSDOF 2
