REMARK  2 active torsions:
REMARK  status: ('A' for Active; 'I' for Inactive)
REMARK    1  A    between atoms: C1_1  and  N1_2 
REMARK    2  A    between atoms: C6_9  and  O1_11 
ROOT
ATOM      1  N1  <0> d           0.002  -0.004   0.002  0.00  0.00    -0.329 N 
ATOM      2  C2  <0> d           0.009  -0.803  -1.099  0.00  0.00     0.068 A 
ATOM      3  N2  <0> d           0.027  -2.055  -0.744  0.00  0.00    -0.240 NA
ATOM      4  C3  <0> d           0.034  -2.141   0.610  0.00  0.00     0.106 A 
ATOM      5  C4  <0> d           0.024  -0.827   1.110  0.00  0.00     0.159 A 
ATOM      6  N3  <0> d           0.033  -0.604   2.414  0.00  0.00    -0.238 NA
ATOM      7  C5  <0> d           0.055  -1.593   3.283  0.00  0.00     0.036 A 
ATOM      8  C6  <0> d           0.069  -2.920   2.868  0.00  0.00     0.085 A 
ATOM      9  C7  <0> d           0.052  -3.209   1.512  0.00  0.00    -0.018 A 
ATOM     10  H4  <0> d          -0.001  -0.450  -2.120  0.00  0.00     0.143 H 
ATOM     11  H5  <0> d           0.062  -1.369   4.340  0.00  0.00     0.119 H 
ATOM     12  H6  <0> d           0.064  -4.231   1.162  0.00  0.00     0.091 H 
ENDROOT
BRANCH   1  13
ATOM     13  C1  <0> d          -0.018   1.461   0.010  0.00  0.00    -0.012 C 
ATOM     14  H1  <0> d           1.005   1.838   0.002  0.00  0.00     0.057 H 
ATOM     15  H2  <0> d          -0.545   1.822  -0.873  0.00  0.00     0.057 H 
ATOM     16  H3  <0> d          -0.528   1.812   0.907  0.00  0.00     0.057 H 
ENDBRANCH   1  13
BRANCH   8  17
ATOM     17  O1  <0> d           0.091  -3.925   3.783  0.00  0.00    -0.359 OA
ATOM     18  H7  <0> d          -0.785  -4.228   4.056  0.00  0.00     0.217 HD
ENDBRANCH   8  17
TORSDOF 2
