REMARK  4 active torsions:
REMARK  status: ('A' for Active; 'I' for Inactive)
REMARK    1  A    between atoms: C1_1  and  C2_2 
REMARK    2  A    between atoms: C2_2  and  C3_3 
REMARK    3  A    between atoms: C2_2  and  C4_4 
REMARK    4  A    between atoms: C4_4  and  C8_10 
ROOT
ATOM      1  C4  <0> d           0.695  -0.536  -1.254  0.00  0.00    -0.017 C 
ATOM      2  C5  <0> d          -0.073  -0.117  -2.529  0.00  0.00     0.018 C 
ATOM      3  C6  <0> d           0.051  -1.314  -3.447  0.00  0.00     0.218 C 
ATOM      4  O1  <0> d          -0.166  -1.300  -4.640  0.00  0.00    -0.274 OA
ATOM      5  N1  <0> d           0.437  -2.395  -2.747  0.00  0.00    -0.360 N 
ATOM      6  C7  <0> d           0.605  -2.077  -1.324  0.00  0.00     0.003 C 
ATOM      7  H8  <0> d          -1.119   0.079  -2.297  0.00  0.00     0.048 H 
ATOM      8  H9  <0> d           0.390   0.760  -2.982  0.00  0.00     0.048 H 
ATOM      9  H10 <0> d           0.585  -3.272  -3.133  0.00  0.00     0.162 HD
ATOM     10  H11 <0> d           1.522  -2.526  -0.943  0.00  0.00     0.065 H 
ATOM     11  H12 <0> d          -0.254  -2.431  -0.754  0.00  0.00     0.065 H 
ENDROOT
BRANCH   1  12
ATOM     12  C2  <0> d           0.002  -0.004   0.002  0.00  0.00    -0.052 C 
ATOM     13  H4  <0> d          -1.037  -0.333   0.011  0.00  0.00     0.040 H 
BRANCH  12  14
ATOM     14  C1  <0> d           0.717  -0.540   1.244  0.00  0.00    -0.072 C 
ATOM     15  H1  <0> d           0.680  -1.629   1.243  0.00  0.00     0.028 H 
ATOM     16  H2  <0> d           1.756  -0.211   1.236  0.00  0.00     0.028 H 
ATOM     17  H3  <0> d           0.223  -0.161   2.139  0.00  0.00     0.028 H 
ENDBRANCH  12  14
BRANCH  12  18
ATOM     18  C3  <0> d           0.053   1.525   0.004  0.00  0.00    -0.072 C 
ATOM     19  H5  <0> d           1.088   1.854   0.099  0.00  0.00     0.028 H 
ATOM     20  H6  <0> d          -0.364   1.904  -0.929  0.00  0.00     0.028 H 
ATOM     21  H7  <0> d          -0.528   1.907   0.843  0.00  0.00     0.028 H 
ENDBRANCH  12  18
ENDBRANCH   1  12
BRANCH   1  22
ATOM     22  C8  <0> d           2.151  -0.070  -1.312  0.00  0.00    -0.067 C 
ATOM     23  H13 <0> d           2.685  -0.435  -0.435  0.00  0.00     0.028 H 
ATOM     24  H14 <0> d           2.622  -0.461  -2.214  0.00  0.00     0.028 H 
ATOM     25  H15 <0> d           2.183   1.020  -1.329  0.00  0.00     0.028 H 
ENDBRANCH   1  22
TORSDOF 4
