REMARK  2 active torsions:
REMARK  status: ('A' for Active; 'I' for Inactive)
REMARK    1  A    between atoms: C1_1  and  C2_2 
REMARK    2  A    between atoms: C4_4  and  N2_9 
ROOT
ATOM      1  C2  <0> d           2.376   1.363  -0.013  0.00  0.00    -0.055 A 
ATOM      2  C3  <0> d           1.171   2.045   0.002  0.00  0.00    -0.033 A 
ATOM      3  C4  <0> d          -0.016   1.320   0.009  0.00  0.00     0.123 A 
ATOM      4  N1  <0> d           0.002  -0.004   0.002  0.00  0.00    -0.220 NA
ATOM      5  C5  <0> d           1.136  -0.681  -0.013  0.00  0.00     0.128 A 
ATOM      6  C6  <0> d           2.352  -0.024  -0.021  0.00  0.00    -0.038 A 
ATOM      7 Cl1  <0> d           1.098  -2.416  -0.022  0.00  0.00    -0.062 Cl
ATOM      8  H4  <0> d           1.153   3.124   0.007  0.00  0.00     0.090 H 
ATOM      9  H5  <0> d           3.275  -0.585  -0.033  0.00  0.00     0.089 H 
ENDROOT
BRANCH   1  10
ATOM     10  C1  <0> d           3.684   2.112  -0.021  0.00  0.00    -0.051 C 
ATOM     11  H1  <0> d           3.487   3.194  -0.014  0.00  0.00     0.033 H 
ATOM     12  H2  <0> d           4.251   1.849  -0.926  0.00  0.00     0.033 H 
ATOM     13  H3  <0> d           4.268   1.839   0.870  0.00  0.00     0.033 H 
ENDBRANCH   1  10
BRANCH   3  14
ATOM     14  N2  <0> d          -1.233   1.992   0.019  0.00  0.00    -0.384 N 
ATOM     15  H6  <0> d          -2.175   1.425   0.025  0.00  0.00     0.157 HD
ATOM     16  H7  <0> d          -1.253   3.092   0.020  0.00  0.00     0.157 HD
ENDBRANCH   3  14
TORSDOF 2
