REMARK  1 active torsions:
REMARK  status: ('A' for Active; 'I' for Inactive)
REMARK    1  A    between atoms: C7_9  and  C8_11 
ROOT
ATOM      1  C1  <0> d           1.103   3.215   0.520  0.00  0.00    -0.061 C 
ATOM      2  C2  <0> d           1.380   1.786  -0.002  0.00  0.00    -0.060 C 
ATOM      3  C3  <0> d          -0.013   1.086   0.008  0.00  0.00    -0.041 C 
ATOM      4  H1  <0> d           0.002  -0.004   0.002  0.00  0.00     0.041 H 
ATOM      5  C4  <0> d          -0.670   1.764   1.262  0.00  0.00    -0.058 C 
ATOM      6  C5  <0> d          -0.432   3.243   0.795  0.00  0.00    -0.053 C 
ATOM      7  H2  <0> d          -0.782   4.032   1.460  0.00  0.00     0.040 H 
ATOM      8  C6  <0> d          -1.083   3.207  -0.621  0.00  0.00    -0.049 C 
ATOM      9  C7  <0> d          -0.798   1.763  -1.156  0.00  0.00     0.034 C 
ATOM     10  H3  <0> d          -0.185   1.802  -2.057  0.00  0.00     0.057 H 
ATOM     11  H4  <0> d           1.657   3.398   1.440  0.00  0.00     0.033 H 
ATOM     12  H5  <0> d           1.367   3.954  -0.237  0.00  0.00     0.033 H 
ATOM     13  H6  <0> d           2.071   1.267   0.663  0.00  0.00     0.033 H 
ATOM     14  H7  <0> d           1.781   1.821  -1.014  0.00  0.00     0.033 H 
ATOM     15  H8  <0> d          -1.727   1.516   1.353  0.00  0.00     0.034 H 
ATOM     16  H9  <0> d          -0.123   1.544   2.179  0.00  0.00     0.034 H 
ATOM     17  H10 <0> d          -2.156   3.383  -0.551  0.00  0.00     0.034 H 
ATOM     18  H11 <0> d          -0.619   3.947  -1.272  0.00  0.00     0.034 H 
ENDROOT
BRANCH   9  19
ATOM     19  C8  <0> d          -2.083   1.022  -1.425  0.00  0.00     0.177 C 
ATOM     20  O1  <0> d          -2.366   0.048  -0.768  0.00  0.00    -0.648 OA
ATOM     21  O2  <0> d          -2.911   1.443  -2.393  0.00  0.00    -0.648 OA
ENDBRANCH   9  19
TORSDOF 1
