REMARK  3 active torsions:
REMARK  status: ('A' for Active; 'I' for Inactive)
REMARK    1  A    between atoms: C1_1  and  N1_2 
REMARK    2  A    between atoms: C2_3  and  N3_10 
REMARK    3  A    between atoms: C4_5  and  C5_7 
ROOT
ATOM      1  N1  <0> d           0.002  -0.004   0.002  0.00  0.00    -0.281 N 
ATOM      2  C2  <0> d           0.008  -0.794  -1.096  0.00  0.00     0.117 A 
ATOM      3  C3  <0> d           0.028  -2.087  -0.671  0.00  0.00    -0.016 A 
ATOM      4  C4  <0> d           0.033  -2.079   0.726  0.00  0.00     0.034 A 
ATOM      5  N2  <0> d           0.024  -0.834   1.130  0.00  0.00    -0.301 N 
ATOM      6  H4  <0> d           0.037  -2.964  -1.302  0.00  0.00     0.092 H 
ATOM      7  H12 <0> d           0.029  -0.537   2.053  0.00  0.00     0.187 HD
ENDROOT
BRANCH   4   8
ATOM      8  C5  <0> d           0.053  -3.295   1.616  0.00  0.00    -0.012 A 
ATOM      9  C7  <0> d           0.845  -4.511   1.133  0.00  0.00    -0.056 A 
ATOM     10  C6  <0> d          -0.684  -4.542   1.124  0.00  0.00    -0.056 A 
ATOM     11  H8  <0> d           1.353  -4.432   0.172  0.00  0.00     0.034 H 
ATOM     12  H9  <0> d           1.356  -5.110   1.887  0.00  0.00     0.034 H 
ATOM     13  H6  <0> d          -1.180  -5.162   1.872  0.00  0.00     0.034 H 
ATOM     14  H7  <0> d          -1.183  -4.483   0.157  0.00  0.00     0.034 H 
ATOM     15  H5  <0> d           0.042  -3.094   2.688  0.00  0.00     0.049 H 
ENDBRANCH   4   8
BRANCH   2  16
ATOM     16  N3  <0> d          -0.003  -0.362  -2.420  0.00  0.00    -0.384 N 
ATOM     17  H10 <0> d          -0.017   0.586  -2.620  0.00  0.00     0.157 HD
ATOM     18  H11 <0> d           0.003  -1.011  -3.141  0.00  0.00     0.157 HD
ENDBRANCH   2  16
BRANCH   1  19
ATOM     19  C1  <0> d          -0.018   1.461   0.010  0.00  0.00     0.002 C 
ATOM     20  H1  <0> d           1.005   1.838   0.002  0.00  0.00     0.059 H 
ATOM     21  H2  <0> d          -0.545   1.822  -0.873  0.00  0.00     0.059 H 
ATOM     22  H3  <0> d          -0.528   1.812   0.907  0.00  0.00     0.059 H 
ENDBRANCH   1  19
TORSDOF 3
