REMARK  2 active torsions:
REMARK  status: ('A' for Active; 'I' for Inactive)
REMARK    1  A    between atoms: C1_1  and  N1_2 
REMARK    2  A    between atoms: C7_9  and  O1_11 
ROOT
ATOM      1  N1  <0> d           3.438   2.224  -0.019  0.00  0.00    -0.345 N 
ATOM      2  C2  <0> d           2.940   3.499  -0.008  0.00  0.00    -0.018 A 
ATOM      3  C3  <0> d           1.598   3.466   0.005  0.00  0.00    -0.054 A 
ATOM      4  C4  <0> d           1.207   2.055   0.002  0.00  0.00     0.014 A 
ATOM      5  C5  <0> d           2.405   1.315  -0.013  0.00  0.00     0.139 A 
ATOM      6  N2  <0> d           2.364  -0.011  -0.020  0.00  0.00    -0.240 NA
ATOM      7  C6  <0> d           1.224  -0.668  -0.013  0.00  0.00     0.036 A 
ATOM      8  C7  <0> d           0.002  -0.004   0.002  0.00  0.00     0.084 A 
ATOM      9  C8  <0> d          -0.017   1.382   0.010  0.00  0.00    -0.036 A 
ATOM     10  H4  <0> d           3.538   4.398  -0.009  0.00  0.00     0.111 H 
ATOM     11  H5  <0> d           0.934   4.317   0.016  0.00  0.00     0.087 H 
ATOM     12  H6  <0> d           1.238  -1.748  -0.019  0.00  0.00     0.119 H 
ATOM     13  H7  <0> d          -0.950   1.926   0.017  0.00  0.00     0.089 H 
ENDROOT
BRANCH   1  14
ATOM     14  C1  <0> d           4.862   1.878  -0.034  0.00  0.00    -0.013 C 
ATOM     15  H1  <0> d           5.205   1.797  -1.065  0.00  0.00     0.057 H 
ATOM     16  H2  <0> d           5.430   2.655   0.479  0.00  0.00     0.057 H 
ATOM     17  H3  <0> d           5.009   0.925   0.475  0.00  0.00     0.057 H 
ENDBRANCH   1  14
BRANCH   8  18
ATOM     18  O1  <0> d          -1.162  -0.707   0.010  0.00  0.00    -0.359 OA
ATOM     19  H8  <0> d          -1.508  -0.906  -0.871  0.00  0.00     0.217 HD
ENDBRANCH   8  18
TORSDOF 2
