REMARK  2 active torsions:
REMARK  status: ('A' for Active; 'I' for Inactive)
REMARK    1  A    between atoms: C1_1  and  C2_2 
REMARK    2  A    between atoms: C6_6  and  N3_12 
ROOT
ATOM      1  C2  <0> d          -0.718   1.572   1.248  0.00  0.00     0.063 A 
ATOM      2  C3  <0> d          -0.094   1.860   2.535  0.00  0.00     0.018 A 
ATOM      3  C4  <0> d           1.221   1.794   3.012  0.00  0.00    -0.067 A 
ATOM      4  C5  <0> d           1.494   2.139   4.302  0.00  0.00    -0.057 A 
ATOM      5  C6  <0> d           0.471   2.559   5.156  0.00  0.00     0.028 A 
ATOM      6  C7  <0> d          -0.834   2.632   4.705  0.00  0.00    -0.030 A 
ATOM      7  C8  <0> d          -1.129   2.283   3.391  0.00  0.00     0.064 A 
ATOM      8  N1  <0> d          -2.287   2.247   2.658  0.00  0.00    -0.277 N 
ATOM      9  H1  <0> d          -3.196   2.490   2.996  0.00  0.00     0.189 HD
ATOM     10  N2  <0> d          -1.992   1.815   1.360  0.00  0.00    -0.179 NA
ATOM     11  H5  <0> d           2.018   1.470   2.359  0.00  0.00     0.085 H 
ATOM     12  H6  <0> d           2.509   2.088   4.667  0.00  0.00     0.086 H 
ATOM     13  H7  <0> d          -1.620   2.958   5.370  0.00  0.00     0.090 H 
ENDROOT
BRANCH   1  14
ATOM     14  C1  <0> d          -0.013   1.086   0.008  0.00  0.00    -0.033 C 
ATOM     15  H2  <0> d           0.002  -0.004   0.002  0.00  0.00     0.035 H 
ATOM     16  H3  <0> d           1.010   1.463   0.000  0.00  0.00     0.035 H 
ATOM     17  H4  <0> d          -0.540   1.447  -0.875  0.00  0.00     0.035 H 
ENDBRANCH   1  14
BRANCH   5  18
ATOM     18  N3  <0> d           0.770   2.908   6.475  0.00  0.00    -0.399 N 
ATOM     19  H8  <0> d           0.063   3.201   7.071  0.00  0.00     0.156 HD
ATOM     20  H9  <0> d           1.684   2.859   6.795  0.00  0.00     0.156 HD
ENDBRANCH   5  18
TORSDOF 2
