REMARK  5 active torsions:
REMARK  status: ('A' for Active; 'I' for Inactive)
REMARK    1  A    between atoms: C1_1  and  C2_2 
REMARK    2  A    between atoms: C2_2  and  C3_3 
REMARK    3  A    between atoms: C2_2  and  C4_4 
REMARK    4  A    between atoms: C4_4  and  C5_5 
REMARK    5  A    between atoms: C5_5  and  C8_11 
ROOT
ATOM      1  C5  <0> d          -1.416  -2.058  -0.121  0.00  0.00     0.268 A 
ATOM      2  N1  <0> d          -0.807  -2.654   1.074  0.00  0.00     0.344 N 
ATOM      3  C6  <0> d          -1.840  -3.516   1.666  0.00  0.00     0.223 A 
ATOM      4  C7  <0> d          -3.055  -3.399   0.782  0.00  0.00     0.250 A 
ATOM      5  O1  <0> d          -4.110  -3.972   0.958  0.00  0.00    -0.271 OA
ATOM      6  N2  <0> d          -2.784  -2.560  -0.231  0.00  0.00    -0.323 N 
ATOM      7  H10 <0> d          -1.494  -4.549   1.692  0.00  0.00     0.099 H 
ATOM      8  H11 <0> d          -2.077  -3.175   2.674  0.00  0.00     0.099 H 
ATOM      9  H12 <0> d          -3.408  -2.321  -0.935  0.00  0.00     0.165 HD
ENDROOT
BRANCH   1  10
ATOM     10  C4  <0> d          -1.433  -0.534   0.013  0.00  0.00    -0.009 C 
ATOM     11  H8  <0> d          -1.916  -0.257   0.950  0.00  0.00     0.040 H 
ATOM     12  H9  <0> d          -1.986  -0.102  -0.821  0.00  0.00     0.040 H 
BRANCH  10  13
ATOM     13  C2  <0> d           0.002  -0.004   0.002  0.00  0.00    -0.057 C 
ATOM     14  H4  <0> d           0.512  -0.356  -0.895  0.00  0.00     0.039 H 
BRANCH  13  15
ATOM     15  C1  <0> d          -0.019   1.526   0.010  0.00  0.00    -0.073 C 
ATOM     16  H1  <0> d           1.004   1.903   0.003  0.00  0.00     0.028 H 
ATOM     17  H2  <0> d          -0.546   1.887  -0.873  0.00  0.00     0.028 H 
ATOM     18  H3  <0> d          -0.529   1.877   0.907  0.00  0.00     0.028 H 
ENDBRANCH  13  15
BRANCH  13  19
ATOM     19  C3  <0> d           0.742  -0.511   1.242  0.00  0.00    -0.073 C 
ATOM     20  H5  <0> d           0.757  -1.601   1.236  0.00  0.00     0.028 H 
ATOM     21  H6  <0> d           1.765  -0.134   1.234  0.00  0.00     0.028 H 
ATOM     22  H7  <0> d           0.232  -0.159   2.138  0.00  0.00     0.028 H 
ENDBRANCH  13  19
ENDBRANCH  10  13
ENDBRANCH   1  10
BRANCH   1  23
ATOM     23  C8  <0> d          -0.617  -2.458  -1.363  0.00  0.00    -0.023 C 
ATOM     24  H13 <0> d           0.406  -2.092  -1.271  0.00  0.00     0.033 H 
ATOM     25  H14 <0> d          -0.607  -3.544  -1.454  0.00  0.00     0.033 H 
ATOM     26  H15 <0> d          -1.080  -2.023  -2.249  0.00  0.00     0.033 H 
ENDBRANCH   1  23
TORSDOF 5
