REMARK  2 active torsions:
REMARK  status: ('A' for Active; 'I' for Inactive)
REMARK    1  A    between atoms: C4_5  and  C5_6 
REMARK    2  A    between atoms: C5_6  and  C6_7 
ROOT
ATOM      1  C1  <0> d          -3.089   0.383   1.154  0.00  0.00    -0.053 A 
ATOM      2  C2  <0> d          -4.043  -0.450   0.700  0.00  0.00     0.019 A 
ATOM      3  O1  <0> d          -4.026  -0.422  -0.643  0.00  0.00    -0.334 OA
ATOM      4  C3  <0> d          -3.073   0.426  -1.061  0.00  0.00     0.025 A 
ATOM      5  C4  <0> d          -2.462   0.945   0.019  0.00  0.00    -0.024 A 
ATOM      6  H1  <0> d          -2.848   0.583   2.188  0.00  0.00     0.087 H 
ATOM      7  H2  <0> d          -4.709  -1.041   1.311  0.00  0.00     0.123 H 
ATOM      8  H3  <0> d          -2.835   0.651  -2.090  0.00  0.00     0.124 H 
ENDROOT
BRANCH   5   9
ATOM      9  C5  <0> d          -1.329   1.940   0.019  0.00  0.00     0.041 C 
ATOM     10  H4  <0> d          -1.391   2.561   0.913  0.00  0.00     0.056 H 
ATOM     11  H5  <0> d          -1.400   2.570  -0.867  0.00  0.00     0.056 H 
BRANCH   9  12
ATOM     12  C6  <0> d          -0.014   1.204   0.009  0.00  0.00     0.177 C 
ATOM     13  O2  <0> d           0.002  -0.004   0.002  0.00  0.00    -0.648 OA
ATOM     14  O3  <0> d           1.139   1.891   0.001  0.00  0.00    -0.648 OA
ENDBRANCH   9  12
ENDBRANCH   5   9
TORSDOF 2
