REMARK  1 active torsions:
REMARK  status: ('A' for Active; 'I' for Inactive)
REMARK    1  A    between atoms: C1_1  and  C2_2 
ROOT
ATOM      1  C2  <0> d          -0.742   1.585  -1.213  0.00  0.00     0.012 A 
ATOM      2  C3  <0> d          -0.064   1.824  -2.368  0.00  0.00    -0.016 A 
ATOM      3  C4  <0> d          -0.758   2.290  -3.500  0.00  0.00     0.219 A 
ATOM      4  O1  <0> d          -0.082   2.529  -4.654  0.00  0.00    -0.169 OA
ATOM      5  N1  <0> d          -2.050   2.494  -3.450  0.00  0.00    -0.143 NA
ATOM      6  N2  <0> d          -2.768   2.255  -2.273  0.00  0.00    -0.241 N 
ATOM      7  H1  <0> d          -3.725   2.409  -2.250  0.00  0.00     0.192 HD
ATOM      8  C5  <0> d          -2.134   1.803  -1.172  0.00  0.00     0.267 A 
ATOM      9  O2  <0> d          -2.760   1.590  -0.146  0.00  0.00    -0.266 OA
ATOM     10  H5  <0> d           1.002   1.658  -2.416  0.00  0.00     0.091 H 
ENDROOT
BRANCH   1  11
ATOM     11  C1  <0> d          -0.013   1.086   0.008  0.00  0.00    -0.046 C 
ATOM     12  H2  <0> d           0.002  -0.004   0.002  0.00  0.00     0.033 H 
ATOM     13  H3  <0> d           1.010   1.463   0.000  0.00  0.00     0.033 H 
ATOM     14  H4  <0> d          -0.523   1.437   0.905  0.00  0.00     0.033 H 
ENDBRANCH   1  11
TORSDOF 1
