REMARK  4 active torsions:
REMARK  status: ('A' for Active; 'I' for Inactive)
REMARK    1  A    between atoms: C1_1  and  C2_2 
REMARK    2  A    between atoms: C4_4  and  C8_9 
REMARK    3  A    between atoms: C6_7  and  C7_8 
REMARK    4  A    between atoms: C8_9  and  O1_10 
ROOT
ATOM      1  C2  <0> d           0.002  -0.004   0.002  0.00  0.00    -0.037 A 
ATOM      2  C3  <0> d           0.006  -0.700  -1.198  0.00  0.00    -0.066 A 
ATOM      3  C4  <0> d           0.025  -2.085  -1.157  0.00  0.00    -0.017 A 
ATOM      4  C5  <0> d           0.039  -2.723   0.069  0.00  0.00     0.011 A 
ATOM      5  N1  <0> d           0.035  -2.029   1.190  0.00  0.00    -0.265 NA
ATOM      6  C6  <0> d           0.023  -0.710   1.190  0.00  0.00     0.036 A 
ATOM      7  H4  <0> d          -0.006  -0.174  -2.141  0.00  0.00     0.085 H 
ATOM      8  H5  <0> d           0.054  -3.802   0.110  0.00  0.00     0.115 H 
ENDROOT
BRANCH   3   9
ATOM      9  C8  <0> d           0.029  -2.886  -2.433  0.00  0.00     0.042 C 
ATOM     10  H9  <0> d          -0.471  -3.840  -2.266  0.00  0.00     0.081 H 
ATOM     11  H10 <0> d          -0.496  -2.332  -3.212  0.00  0.00     0.081 H 
BRANCH   9  12
ATOM     12  O1  <0> d           1.378  -3.121  -2.844  0.00  0.00    -0.396 OA
ATOM     13  H11 <0> d           1.457  -3.632  -3.661  0.00  0.00     0.209 HD
ENDBRANCH   9  12
ENDBRANCH   3   9
BRANCH   1  14
ATOM     14  C1  <0> d          -0.018   1.503   0.010  0.00  0.00    -0.049 C 
ATOM     15  H1  <0> d           1.004   1.880   0.003  0.00  0.00     0.033 H 
ATOM     16  H2  <0> d          -0.545   1.864  -0.873  0.00  0.00     0.033 H 
ATOM     17  H3  <0> d          -0.529   1.854   0.907  0.00  0.00     0.033 H 
ENDBRANCH   1  14
BRANCH   6  18
ATOM     18  C7  <0> d           0.026   0.036   2.499  0.00  0.00    -0.035 C 
ATOM     19  H6  <0> d          -1.001   0.202   2.825  0.00  0.00     0.035 H 
ATOM     20  H7  <0> d           0.555  -0.551   3.250  0.00  0.00     0.035 H 
ATOM     21  H8  <0> d           0.526   0.996   2.370  0.00  0.00     0.035 H 
ENDBRANCH   6  18
TORSDOF 4
