REMARK  0 active torsions:
REMARK  status: ('A' for Active; 'I' for Inactive)
ROOT
ATOM      1  C1  <0> d          -2.409   1.370   0.034  0.00  0.00    -0.081 A 
ATOM      2  C2  <0> d          -2.391  -0.025   0.026  0.00  0.00    -0.081 A 
ATOM      3  C3  <0> d          -1.216  -0.709   0.010  0.00  0.00    -0.053 A 
ATOM      4  C4  <0> d           0.002  -0.004   0.002  0.00  0.00     0.087 A 
ATOM      5  C5  <0> d          -0.017   1.416   0.010  0.00  0.00     0.085 A 
ATOM      6  C6  <0> d          -1.252   2.086   0.031  0.00  0.00    -0.053 A 
ATOM      7  N1  <0> d           1.135   2.095   0.003  0.00  0.00    -0.256 NA
ATOM      8  C7  <0> d           2.276   1.447  -0.012  0.00  0.00     0.041 A 
ATOM      9  C8  <0> d           2.299   0.040  -0.020  0.00  0.00     0.154 A 
ATOM     10  N2  <0> d           1.170  -0.649  -0.013  0.00  0.00    -0.234 NA
ATOM     11  C9  <0> d           3.553  -0.651  -0.035  0.00  0.00     0.121 C 
ATOM     12  N3  <0> d           4.548  -1.199  -0.047  0.00  0.00    -0.190 NA
ATOM     13  H1  <0> d          -3.356   1.889   0.047  0.00  0.00     0.083 H 
ATOM     14  H2  <0> d          -3.324  -0.569   0.032  0.00  0.00     0.083 H 
ATOM     15  H3  <0> d          -1.218  -1.789   0.005  0.00  0.00     0.087 H 
ATOM     16  H4  <0> d          -1.283   3.166   0.038  0.00  0.00     0.087 H 
ATOM     17  H5  <0> d           3.205   1.997  -0.018  0.00  0.00     0.119 H 
ENDROOT
TORSDOF 0
