REMARK  2 active torsions:
REMARK  status: ('A' for Active; 'I' for Inactive)
REMARK    1  A    between atoms: C2_2  and  C3_3 
REMARK    2  A    between atoms: C6_6  and  C9_9 
ROOT
ATOM      1  C1  <0> d           1.148   4.688   0.015  0.00  0.00    -0.149 C 
ATOM      2  C2  <0> d           1.164   3.514   0.009  0.00  0.00    -0.078 C 
ATOM      3  H1  <0> d           1.133   5.738   0.021  0.00  0.00     0.166 H 
ENDROOT
BRANCH   2   4
ATOM      4  C3  <0> d           1.184   2.082   0.002  0.00  0.00     0.017 A 
ATOM      5  C8  <0> d           2.404   1.401  -0.013  0.00  0.00    -0.064 A 
ATOM      6  C7  <0> d           2.423   0.030  -0.021  0.00  0.00    -0.065 A 
ATOM      7  H5  <0> d           3.331   1.954  -0.020  0.00  0.00     0.085 H 
ATOM      8  C6  <0> d           1.222  -0.686  -0.013  0.00  0.00     0.040 A 
ATOM      9  H4  <0> d           3.366  -0.497  -0.033  0.00  0.00     0.085 H 
ATOM     10  C5  <0> d           0.002  -0.004   0.002  0.00  0.00    -0.065 A 
ATOM     11  C4  <0> d          -0.017   1.367   0.010  0.00  0.00    -0.064 A 
ATOM     12  H3  <0> d          -0.926  -0.557   0.008  0.00  0.00     0.085 H 
ATOM     13  H2  <0> d          -0.959   1.894   0.017  0.00  0.00     0.085 H 
BRANCH   8  14
ATOM     14  C9  <0> d           1.243  -2.162  -0.021  0.00  0.00     0.209 C 
ATOM     15  O1  <0> d           0.199  -2.784  -0.014  0.00  0.00    -0.644 OA
ATOM     16  O2  <0> d           2.419  -2.819  -0.036  0.00  0.00    -0.644 OA
ENDBRANCH   8  14
ENDBRANCH   2   4
TORSDOF 2
