REMARK  3 active torsions:
REMARK  status: ('A' for Active; 'I' for Inactive)
REMARK    1  A    between atoms: C3_3  and  C7_9 
REMARK    2  A    between atoms: C4_4  and  O1_8 
REMARK    3  A    between atoms: C7_9  and  O2_10 
ROOT
ATOM      1  C1  <0> d          -0.237   5.016   0.031  0.00  0.00    -0.061 A 
ATOM      2  C2  <0> d          -0.108   3.640   0.023  0.00  0.00    -0.070 A 
ATOM      3  C3  <0> d           1.147   3.062   0.008  0.00  0.00    -0.002 A 
ATOM      4  C4  <0> d           2.279   3.865   0.007  0.00  0.00     0.075 A 
ATOM      5  C5  <0> d           2.148   5.245   0.010  0.00  0.00    -0.029 A 
ATOM      6  C6  <0> d           0.890   5.819   0.025  0.00  0.00     0.036 A 
ATOM      7 Cl1  <0> d           0.725   7.547   0.037  0.00  0.00    -0.084 Cl
ATOM      8  H1  <0> d          -1.219   5.466   0.043  0.00  0.00     0.086 H 
ATOM      9  H2  <0> d          -0.989   3.015   0.028  0.00  0.00     0.084 H 
ATOM     10  H3  <0> d           3.028   5.872   0.005  0.00  0.00     0.090 H 
ENDROOT
BRANCH   3  11
ATOM     11  C7  <0> d           1.286   1.562  -0.002  0.00  0.00     0.043 C 
ATOM     12  H5  <0> d           1.840   1.243   0.881  0.00  0.00     0.081 H 
ATOM     13  H6  <0> d           1.823   1.252  -0.899  0.00  0.00     0.081 H 
BRANCH  11  14
ATOM     14  O2  <0> d          -0.011   0.963   0.007  0.00  0.00    -0.396 OA
ATOM     15  H7  <0> d           0.002  -0.004   0.002  0.00  0.00     0.209 HD
ENDBRANCH  11  14
ENDBRANCH   3  11
BRANCH   4  16
ATOM     16  O1  <0> d           3.514   3.298  -0.002  0.00  0.00    -0.360 OA
ATOM     17  H4  <0> d           3.868   3.139  -0.888  0.00  0.00     0.217 HD
ENDBRANCH   4  16
TORSDOF 3
