REMARK  3 active torsions:
REMARK  status: ('A' for Active; 'I' for Inactive)
REMARK    1  A    between atoms: N1_3  and  C4_6 
REMARK    2  A    between atoms: C4_6  and  C5_7 
REMARK    3  A    between atoms: C5_7  and  C6_8 
ROOT
ATOM      1  C4  <0> d          -1.433  -0.534   0.013  0.00  0.00     0.009 C 
ATOM      2  H4  <0> d          -1.944  -0.182   0.910  0.00  0.00     0.065 H 
ATOM      3  H5  <0> d          -1.960  -0.173  -0.870  0.00  0.00     0.065 H 
ENDROOT
BRANCH   1   4
ATOM      4  N1  <0> d          -1.413  -1.998   0.005  0.00  0.00    -0.350 N 
ATOM      5  C2  <0> d          -1.418  -2.805  -1.101  0.00  0.00    -0.003 A 
ATOM      6  C1  <0> d          -1.391  -4.076  -0.657  0.00  0.00     0.018 A 
ATOM      7  H2  <0> d          -1.438  -2.483  -2.132  0.00  0.00     0.113 H 
ATOM      8  N2  <0> d          -1.379  -4.046   0.684  0.00  0.00    -0.255 NA
ATOM      9  H1  <0> d          -1.385  -4.963  -1.273  0.00  0.00     0.117 H 
ATOM     10  C3  <0> d          -1.393  -2.806   1.087  0.00  0.00     0.065 A 
ATOM     11  H3  <0> d          -1.387  -2.478   2.116  0.00  0.00     0.143 H 
ENDBRANCH   1   4
BRANCH   1  12
ATOM     12  C5  <0> d           0.002  -0.004   0.002  0.00  0.00     0.031 C 
ATOM     13  H6  <0> d           0.512  -0.356  -0.895  0.00  0.00     0.051 H 
ATOM     14  H7  <0> d           0.529  -0.365   0.885  0.00  0.00     0.051 H 
BRANCH  12  15
ATOM     15  C6  <0> d          -0.018   1.503   0.010  0.00  0.00     0.174 C 
ATOM     16  O1  <0> d          -1.073   2.093   0.018  0.00  0.00    -0.648 OA
ATOM     17  O2  <0> d           1.135   2.190   0.003  0.00  0.00    -0.648 OA
ENDBRANCH  12  15
ENDBRANCH   1  12
TORSDOF 3
