REMARK  9 active torsions:
REMARK  status: ('A' for Active; 'I' for Inactive)
REMARK    1  A    between atoms: C1_1  and  C2_2 
REMARK    2  A    between atoms: C2_2  and  C3_3 
REMARK    3  A    between atoms: C3_3  and  C4_5 
REMARK    4  A    between atoms: C3_3  and  C5_6 
REMARK    5  A    between atoms: C5_6  and  C6_7 
REMARK    6  A    between atoms: C6_7  and  C7_8 
REMARK    7  A    between atoms: C7_8  and  C8_9 
REMARK    8  A    between atoms: C8_9  and  C9_10 
REMARK    9  A    between atoms: C9_10  and  O1_11 
ROOT
ATOM      1  C5  <0> d          -0.064   0.971   2.503  0.00  0.00    -0.062 C 
ATOM      2  H10 <0> d          -0.047  -0.124   2.409  0.00  0.00     0.033 H 
ATOM      3  H11 <0> d           0.966   1.348   2.588  0.00  0.00     0.033 H 
ENDROOT
BRANCH   1   4
ATOM      4  C3  <0> d          -0.729   1.579   1.267  0.00  0.00    -0.058 C 
ATOM      5  H1  <0> d          -1.785   1.274   1.231  0.00  0.00     0.039 H 
BRANCH   4   6
ATOM      6  C2  <0> d          -0.013   1.086   0.008  0.00  0.00    -0.065 C 
ATOM      7  H5  <0> d           0.002  -0.014   0.002  0.00  0.00     0.033 H 
ATOM      8  H6  <0> d           1.019   1.466   0.000  0.00  0.00     0.033 H 
BRANCH   6   9
ATOM      9  C1  <0> d          -0.753   1.593  -1.232  0.00  0.00    -0.076 C 
ATOM     10  H2  <0> d          -0.238   1.238  -2.136  0.00  0.00     0.027 H 
ATOM     11  H3  <0> d          -0.768   2.693  -1.225  0.00  0.00     0.027 H 
ATOM     12  H4  <0> d          -1.785   1.212  -1.224  0.00  0.00     0.027 H 
ENDBRANCH   6   9
ENDBRANCH   4   6
BRANCH   4  13
ATOM     13  C4  <0> d          -0.641   3.105   1.339  0.00  0.00    -0.073 C 
ATOM     14  H7  <0> d          -1.156   3.460   2.244  0.00  0.00     0.028 H 
ATOM     15  H8  <0> d          -1.119   3.542   0.450  0.00  0.00     0.028 H 
ATOM     16  H9  <0> d           0.415   3.410   1.374  0.00  0.00     0.028 H 
ENDBRANCH   4  13
ENDBRANCH   1   4
BRANCH   1  17
ATOM     17  C6  <0> d          -0.855   1.364   3.753  0.00  0.00    -0.065 C 
ATOM     18  H12 <0> d          -0.871   2.460   3.847  0.00  0.00     0.033 H 
ATOM     19  H13 <0> d          -1.885   0.988   3.668  0.00  0.00     0.033 H 
BRANCH  17  20
ATOM     20  C7  <0> d          -0.190   0.756   4.989  0.00  0.00    -0.063 C 
ATOM     21  H14 <0> d          -0.173  -0.340   4.895  0.00  0.00     0.033 H 
ATOM     22  H15 <0> d           0.841   1.132   5.074  0.00  0.00     0.033 H 
BRANCH  20  23
ATOM     23  C8  <0> d          -0.981   1.149   6.239  0.00  0.00    -0.045 C 
ATOM     24  H16 <0> d          -0.997   2.244   6.333  0.00  0.00     0.036 H 
ATOM     25  H17 <0> d          -2.011   0.772   6.154  0.00  0.00     0.036 H 
BRANCH  23  26
ATOM     26  C9  <0> d          -0.315   0.541   7.475  0.00  0.00     0.017 C 
ATOM     27  H18 <0> d          -0.299  -0.555   7.381  0.00  0.00     0.073 H 
ATOM     28  H19 <0> d           0.715   0.917   7.560  0.00  0.00     0.073 H 
BRANCH  26  29
ATOM     29  O1  <0> d          -1.054   0.907   8.642  0.00  0.00    -0.401 OA
ATOM     30  H20 <0> d          -0.725   0.561   9.633  0.00  0.00     0.209 HD
ENDBRANCH  26  29
ENDBRANCH  23  26
ENDBRANCH  20  23
ENDBRANCH  17  20
ENDBRANCH   1  17
TORSDOF 9
