REMARK  3 active torsions:
REMARK  status: ('A' for Active; 'I' for Inactive)
REMARK    1  A    between atoms: C1_1  and  C2_2 
REMARK    2  A    between atoms: C5_5  and  O1_9 
REMARK    3  A    between atoms: O1_9  and  C8_10 
ROOT
ATOM      1  C2  <0> d           1.176   1.783   0.000  0.00  0.00    -0.040 A 
ATOM      2  C3  <0> d          -0.013   1.076   0.008  0.00  0.00    -0.073 A 
ATOM      3  C4  <0> d          -1.218   1.749   0.017  0.00  0.00    -0.050 A 
ATOM      4  C5  <0> d          -1.237   3.137   0.030  0.00  0.00     0.069 A 
ATOM      5  C6  <0> d          -0.045   3.845   0.022  0.00  0.00    -0.029 A 
ATOM      6  C7  <0> d           1.160   3.166   0.007  0.00  0.00     0.042 A 
ATOM      7 Cl1  <0> d           2.654   4.051  -0.004  0.00  0.00    -0.084 Cl
ATOM      8  H4  <0> d           0.002  -0.004   0.002  0.00  0.00     0.084 H 
ATOM      9  H5  <0> d          -2.146   1.196   0.019  0.00  0.00     0.087 H 
ATOM     10  H6  <0> d          -0.057   4.925   0.027  0.00  0.00     0.090 H 
ENDROOT
BRANCH   4  11
ATOM     11  O1  <0> d          -2.423   3.801   0.044  0.00  0.00    -0.356 OA
BRANCH  11  12
ATOM     12  C8  <0> d          -3.611   3.008   0.052  0.00  0.00     0.010 C 
ATOM     13  H7  <0> d          -3.636   2.383  -0.841  0.00  0.00     0.066 H 
ATOM     14  H8  <0> d          -3.619   2.374   0.939  0.00  0.00     0.066 H 
ATOM     15  H9  <0> d          -4.484   3.660   0.063  0.00  0.00     0.066 H 
ENDBRANCH  11  12
ENDBRANCH   4  11
BRANCH   1  16
ATOM     16  C1  <0> d           2.490   1.045  -0.016  0.00  0.00    -0.050 C 
ATOM     17  H1  <0> d           2.797   0.873  -1.047  0.00  0.00     0.033 H 
ATOM     18  H2  <0> d           3.247   1.641   0.494  0.00  0.00     0.033 H 
ATOM     19  H3  <0> d           2.376   0.089   0.494  0.00  0.00     0.033 H 
ENDBRANCH   1  16
TORSDOF 3
