REMARK  1 active torsions:
REMARK  status: ('A' for Active; 'I' for Inactive)
REMARK    1  A    between atoms: C1_1  and  C2_2 
ROOT
ATOM      1  C2  <0> d           0.002  -0.004   0.002  0.00  0.00    -0.027 A 
ATOM      2  C3  <0> d           0.006  -0.707  -1.195  0.00  0.00     0.012 A 
ATOM      3  N1  <0> d           0.025  -2.027  -1.167  0.00  0.00    -0.232 NA
ATOM      4  C4  <0> d           0.039  -2.681  -0.013  0.00  0.00     0.231 A 
ATOM      5  N2  <0> d           0.035  -2.040   1.148  0.00  0.00    -0.232 NA
ATOM      6  C5  <0> d           0.023  -0.720   1.191  0.00  0.00     0.012 A 
ATOM      7  C6  <0> d           0.059  -4.113  -0.021  0.00  0.00     0.141 C 
ATOM      8  N3  <0> d           0.075  -5.248  -0.027  0.00  0.00    -0.188 NA
ATOM      9  H4  <0> d          -0.006  -0.180  -2.138  0.00  0.00     0.115 H 
ATOM     10  H5  <0> d           0.025  -0.203   2.140  0.00  0.00     0.115 H 
ENDROOT
BRANCH   1  11
ATOM     11  C1  <0> d          -0.018   1.503   0.010  0.00  0.00    -0.049 C 
ATOM     12  H1  <0> d           1.004   1.880   0.003  0.00  0.00     0.033 H 
ATOM     13  H2  <0> d          -0.545   1.864  -0.873  0.00  0.00     0.033 H 
ATOM     14  H3  <0> d          -0.529   1.854   0.907  0.00  0.00     0.033 H 
ENDBRANCH   1  11
TORSDOF 1
