REMARK  6 active torsions:
REMARK  status: ('A' for Active; 'I' for Inactive)
REMARK    1  A    between atoms: C1_1  and  C2_2 
REMARK    2  A    between atoms: C2_2  and  C3_3 
REMARK    3  A    between atoms: C3_3  and  C4_4 
REMARK    4  A    between atoms: C5_5  and  C6_6 
REMARK    5  A    between atoms: C7_7  and  C8_8 
REMARK    6  A    between atoms: C8_8  and  O1_9 
ROOT
ATOM      1  C4  <0> d           0.018  -1.178  -0.004  0.00  0.00    -0.102 C 
ATOM      2  C5  <0> d           0.002  -0.004   0.002  0.00  0.00    -0.079 C 
ENDROOT
BRANCH   1   3
ATOM      3  C3  <0> d           0.038  -2.650  -0.013  0.00  0.00    -0.009 C 
ATOM      4  H6  <0> d           0.548  -3.001  -0.909  0.00  0.00     0.051 H 
ATOM      5  H7  <0> d           0.565  -3.011   0.871  0.00  0.00     0.051 H 
BRANCH   3   6
ATOM      6  C2  <0> d          -1.397  -3.179  -0.002  0.00  0.00    -0.059 C 
ATOM      7  H4  <0> d          -1.908  -2.828   0.895  0.00  0.00     0.033 H 
ATOM      8  H5  <0> d          -1.925  -2.818  -0.885  0.00  0.00     0.033 H 
BRANCH   6   9
ATOM      9  C1  <0> d          -1.377  -4.709  -0.010  0.00  0.00    -0.076 C 
ATOM     10  H1  <0> d          -0.867  -5.061  -0.907  0.00  0.00     0.027 H 
ATOM     11  H2  <0> d          -0.850  -5.070   0.873  0.00  0.00     0.027 H 
ATOM     12  H3  <0> d          -2.399  -5.087  -0.002  0.00  0.00     0.027 H 
ENDBRANCH   6   9
ENDBRANCH   3   6
ENDBRANCH   1   3
BRANCH   2  13
ATOM     13  C6  <0> d          -0.017   1.428   0.010  0.00  0.00    -0.035 C 
ATOM     14  C7  <0> d           1.124   2.108   0.003  0.00  0.00    -0.073 C 
ATOM     15  H9  <0> d           1.110   3.188   0.009  0.00  0.00     0.081 H 
ATOM     16  H8  <0> d          -0.960   1.955   0.017  0.00  0.00     0.097 H 
BRANCH  14  17
ATOM     17  C8  <0> d           2.439   1.372  -0.014  0.00  0.00     0.032 C 
ATOM     18  H10 <0> d           2.896   1.421   0.975  0.00  0.00     0.080 H 
ATOM     19  H11 <0> d           2.269   0.330  -0.284  0.00  0.00     0.080 H 
BRANCH  17  20
ATOM     20  O1  <0> d           3.311   1.976  -0.972  0.00  0.00    -0.397 OA
ATOM     21  H12 <0> d           4.178   1.553  -1.036  0.00  0.00     0.209 HD
ENDBRANCH  17  20
ENDBRANCH  14  17
ENDBRANCH   2  13
TORSDOF 6
