REMARK  3 active torsions:
REMARK  status: ('A' for Active; 'I' for Inactive)
REMARK    1  A    between atoms: C1_1  and  C2_2 
REMARK    2  A    between atoms: C3_3  and  C5_7 
REMARK    3  A    between atoms: C5_7  and  C6_9 
ROOT
ATOM      1  C2  <0> d          -0.700   1.562   3.820  0.00  0.00     0.090 A 
ATOM      2  C3  <0> d          -0.200   1.217   2.573  0.00  0.00     0.060 A 
ATOM      3  C4  <0> d           0.979   0.401   2.912  0.00  0.00     0.045 A 
ATOM      4  N1  <0> d           1.021   0.381   4.211  0.00  0.00    -0.140 NA
ATOM      5  O1  <0> d           0.117   1.002   4.714  0.00  0.00    -0.218 OA
ATOM      6  H4  <0> d           1.663  -0.078   2.227  0.00  0.00     0.119 H 
ENDROOT
BRANCH   2   7
ATOM      7  C5  <0> d          -0.718   1.572   1.248  0.00  0.00     0.159 C 
ATOM      8  O2  <0> d          -1.715   2.256   1.150  0.00  0.00    -0.293 OA
BRANCH   7   9
ATOM      9  C6  <0> d          -0.013   1.086   0.008  0.00  0.00    -0.016 C 
ATOM     10  H5  <0> d           0.001   0.086   0.003  0.00  0.00     0.038 H 
ATOM     11  H6  <0> d           1.010   1.463   0.000  0.00  0.00     0.038 H 
ATOM     12  H7  <0> d          -0.540   1.447  -0.875  0.00  0.00     0.038 H 
ENDBRANCH   7   9
ENDBRANCH   2   7
BRANCH   1  13
ATOM     13  C1  <0> d          -1.919   2.401   4.108  0.00  0.00    -0.028 C 
ATOM     14  H1  <0> d          -2.795   1.756   4.178  0.00  0.00     0.036 H 
ATOM     15  H2  <0> d          -1.781   2.930   5.050  0.00  0.00     0.036 H 
ATOM     16  H3  <0> d          -2.062   3.122   3.303  0.00  0.00     0.036 H 
ENDBRANCH   1  13
TORSDOF 3
