REMARK  10 active torsions:
REMARK  status: ('A' for Active; 'I' for Inactive)
REMARK    1  A    between atoms: C1_1  and  C2_2 
REMARK    2  A    between atoms: C2_2  and  C3_3 
REMARK    3  A    between atoms: C3_3  and  C4_5 
REMARK    4  A    between atoms: C3_3  and  C5_6 
REMARK    5  A    between atoms: C5_6  and  C6_7 
REMARK    6  A    between atoms: C6_7  and  C7_8 
REMARK    7  A    between atoms: C7_8  and  C8_9 
REMARK    8  A    between atoms: C8_9  and  C9_10 
REMARK    9  A    between atoms: C8_9  and  C10_11 
REMARK   10  A    between atoms: C8_9  and  O1_12 
ROOT
ATOM      1  C6  <0> d           0.002  -0.004   0.002  0.00  0.00    -0.062 C 
ATOM      2  H12 <0> d           0.529  -0.365   0.885  0.00  0.00     0.033 H 
ATOM      3  H13 <0> d          -1.020  -0.381   0.010  0.00  0.00     0.033 H 
ENDROOT
BRANCH   1   4
ATOM      4  C5  <0> d           0.718  -0.497  -1.257  0.00  0.00    -0.062 C 
ATOM      5  H10 <0> d           0.191  -0.136  -2.140  0.00  0.00     0.033 H 
ATOM      6  H11 <0> d           1.741  -0.120  -1.264  0.00  0.00     0.033 H 
BRANCH   4   7
ATOM      7  C3  <0> d           0.739  -2.027  -1.265  0.00  0.00    -0.058 C 
ATOM      8  H1  <0> d          -0.279  -2.405  -1.168  0.00  0.00     0.039 H 
BRANCH   7   9
ATOM      9  C2  <0> d           1.343  -2.522  -2.581  0.00  0.00    -0.065 C 
ATOM     10  H5  <0> d           0.794  -2.090  -3.418  0.00  0.00     0.033 H 
ATOM     11  H6  <0> d           2.389  -2.219  -2.638  0.00  0.00     0.033 H 
BRANCH   9  12
ATOM     12  C1  <0> d           1.250  -4.048  -2.643  0.00  0.00    -0.076 C 
ATOM     13  H2  <0> d           1.799  -4.480  -1.806  0.00  0.00     0.027 H 
ATOM     14  H3  <0> d           0.204  -4.351  -2.587  0.00  0.00     0.027 H 
ATOM     15  H4  <0> d           1.680  -4.400  -3.581  0.00  0.00     0.027 H 
ENDBRANCH   9  12
ENDBRANCH   7   9
BRANCH   7  16
ATOM     16  C4  <0> d           1.584  -2.532  -0.094  0.00  0.00    -0.073 C 
ATOM     17  H7  <0> d           1.154  -2.180   0.843  0.00  0.00     0.028 H 
ATOM     18  H8  <0> d           1.599  -3.622  -0.100  0.00  0.00     0.028 H 
ATOM     19  H9  <0> d           2.602  -2.155  -0.192  0.00  0.00     0.028 H 
ENDBRANCH   7  16
ENDBRANCH   4   7
ENDBRANCH   1   4
BRANCH   1  20
ATOM     20  C7  <0> d          -0.019   1.526   0.010  0.00  0.00    -0.037 C 
ATOM     21  H14 <0> d           1.004   1.903   0.003  0.00  0.00     0.037 H 
ATOM     22  H15 <0> d          -0.546   1.887  -0.873  0.00  0.00     0.037 H 
BRANCH  20  23
ATOM     23  C8  <0> d          -0.735   2.019   1.269  0.00  0.00     0.051 C 
BRANCH  23  24
ATOM     24  C9  <0> d          -0.866   3.543   1.217  0.00  0.00    -0.048 C 
ATOM     25  H16 <0> d          -1.441   3.828   0.337  0.00  0.00     0.031 H 
ATOM     26  H17 <0> d          -1.376   3.894   2.114  0.00  0.00     0.031 H 
ATOM     27  H18 <0> d           0.126   3.991   1.164  0.00  0.00     0.031 H 
ENDBRANCH  23  24
BRANCH  23  28
ATOM     28  C10 <0> d          -2.127   1.390   1.344  0.00  0.00    -0.048 C 
ATOM     29  H19 <0> d          -2.034   0.304   1.381  0.00  0.00     0.031 H 
ATOM     30  H20 <0> d          -2.638   1.741   2.240  0.00  0.00     0.031 H 
ATOM     31  H21 <0> d          -2.703   1.675   0.463  0.00  0.00     0.031 H 
ENDBRANCH  23  28
BRANCH  23  32
ATOM     32  O1  <0> d           0.019   1.645   2.424  0.00  0.00    -0.391 OA
ATOM     33  H22 <0> d           0.915   2.009   2.444  0.00  0.00     0.210 HD
ENDBRANCH  23  32
ENDBRANCH  20  23
ENDBRANCH   1  20
TORSDOF 10
