REMARK  4 active torsions:
REMARK  status: ('A' for Active; 'I' for Inactive)
REMARK    1  A    between atoms: C2_2  and  C3_3 
REMARK    2  A    between atoms: C3_3  and  O1_4 
REMARK    3  A    between atoms: O1_4  and  C4_5 
REMARK    4  A    between atoms: C7_8  and  N1_11 
ROOT
ATOM      1  C1  <0> d           2.198  -5.301  -0.050  0.00  0.00    -0.152 C 
ATOM      2  C2  <0> d           2.337  -4.135  -0.044  0.00  0.00    -0.091 C 
ATOM      3  H1  <0> d           2.074  -6.344  -0.054  0.00  0.00     0.166 H 
ENDROOT
BRANCH   2   4
ATOM      4  C3  <0> d           2.511  -2.674  -0.038  0.00  0.00     0.080 C 
ATOM      5  H2  <0> d           3.056  -2.369  -0.931  0.00  0.00     0.094 H 
ATOM      6  H3  <0> d           3.073  -2.379   0.849  0.00  0.00     0.094 H 
BRANCH   4   7
ATOM      7  O1  <0> d           1.230  -2.041  -0.022  0.00  0.00    -0.340 OA
BRANCH   7   8
ATOM      8  C4  <0> d           1.212  -0.681  -0.014  0.00  0.00     0.070 A 
ATOM      9  C9  <0> d           2.405   0.027  -0.021  0.00  0.00    -0.049 A 
ATOM     10  C8  <0> d           2.388   1.408  -0.012  0.00  0.00    -0.055 A 
ATOM     11  H7  <0> d           3.346  -0.501  -0.033  0.00  0.00     0.087 H 
ATOM     12  C7  <0> d           1.177   2.087   0.002  0.00  0.00     0.025 A 
ATOM     13  H6  <0> d           3.316   1.960  -0.017  0.00  0.00     0.087 H 
ATOM     14  C6  <0> d          -0.017   1.377   0.010  0.00  0.00    -0.055 A 
ATOM     15  C5  <0> d           0.002  -0.004   0.002  0.00  0.00    -0.049 A 
ATOM     16  H5  <0> d          -0.959   1.904   0.017  0.00  0.00     0.087 H 
ATOM     17  H4  <0> d          -0.926  -0.557   0.008  0.00  0.00     0.087 H 
BRANCH  12  18
ATOM     18  N1  <0> d           1.159   3.486   0.009  0.00  0.00    -0.399 N 
ATOM     19  H8  <0> d           0.312   3.960   0.020  0.00  0.00     0.156 HD
ATOM     20  H9  <0> d           1.992   3.982   0.004  0.00  0.00     0.156 HD
ENDBRANCH  12  18
ENDBRANCH   7   8
ENDBRANCH   4   7
ENDBRANCH   2   4
TORSDOF 4
