REMARK  0 active torsions:
REMARK  status: ('A' for Active; 'I' for Inactive)
ROOT
ATOM      1  C1  <0> d          -0.016   1.357   0.009  0.00  0.00    -0.082 A 
ATOM      2  C2  <0> d           1.162   2.103   0.002  0.00  0.00    -0.081 A 
ATOM      3  C3  <0> d           2.385   1.512  -0.013  0.00  0.00    -0.053 A 
ATOM      4  C4  <0> d           2.477   0.105  -0.021  0.00  0.00     0.090 A 
ATOM      5  C5  <0> d           1.231  -0.676  -0.013  0.00  0.00     0.033 A 
ATOM      6  C6  <0> d           0.002  -0.004   0.002  0.00  0.00    -0.068 A 
ATOM      7  C7  <0> d           1.657  -2.011  -0.024  0.00  0.00     0.142 A 
ATOM      8  N1  <0> d           3.017  -1.978  -0.037  0.00  0.00    -0.267 N 
ATOM      9  H1  <0> d           3.581  -2.767  -0.046  0.00  0.00     0.190 HD
ATOM     10  N2  <0> d           3.463  -0.773  -0.035  0.00  0.00    -0.173 NA
ATOM     11  C8  <0> d           0.826  -3.178  -0.022  0.00  0.00     0.120 C 
ATOM     12  N3  <0> d           0.167  -4.104  -0.021  0.00  0.00    -0.190 NA
ATOM     13  H2  <0> d          -0.966   1.871   0.026  0.00  0.00     0.083 H 
ATOM     14  H3  <0> d           1.100   3.181   0.008  0.00  0.00     0.083 H 
ATOM     15  H4  <0> d           3.280   2.115  -0.018  0.00  0.00     0.087 H 
ATOM     16  H5  <0> d          -0.923  -0.561   0.007  0.00  0.00     0.085 H 
ENDROOT
TORSDOF 0
