REMARK  0 active torsions:
REMARK  status: ('A' for Active; 'I' for Inactive)
ROOT
ATOM      1  C1  <0> d          -2.109   0.001   1.346  0.00  0.00    -0.054 C 
ATOM      2  C2  <0> d          -2.920  -0.524   0.156  0.00  0.00    -0.009 C 
ATOM      3  C3  <0> d          -2.194  -0.159  -1.120  0.00  0.00     0.132 C 
ATOM      4  O1  <0> d          -2.769   0.406  -2.019  0.00  0.00    -0.298 OA
ATOM      5  C4  <0> d          -0.730  -0.520  -1.240  0.00  0.00     0.042 C 
ATOM      6  C5  <0> d           0.002  -0.004   0.002  0.00  0.00     0.170 C 
ATOM      7  C6  <0> d          -0.679  -0.536   1.263  0.00  0.00    -0.012 C 
ATOM      8  O2  <0> d          -0.017   1.429   0.010  0.00  0.00    -0.353 OA
ATOM      9  C7  <0> d           1.354   1.875  -0.001  0.00  0.00     0.043 C 
ATOM     10  C8  <0> d           2.127   0.645   0.536  0.00  0.00     0.043 C 
ATOM     11  O3  <0> d           1.367  -0.450  -0.030  0.00  0.00    -0.353 OA
ATOM     12  H1  <0> d          -2.570  -0.333   2.275  0.00  0.00     0.033 H 
ATOM     13  H2  <0> d          -2.091   1.091   1.320  0.00  0.00     0.033 H 
ATOM     14  H3  <0> d          -3.010  -1.518   0.227  0.00  0.00     0.044 H 
ATOM     15  H4  <0> d          -3.910  -0.068   0.158  0.00  0.00     0.044 H 
ATOM     16  H5  <0> d          -0.349  -0.098  -2.063  0.00  0.00     0.052 H 
ATOM     17  H6  <0> d          -0.624  -1.603  -1.304  0.00  0.00     0.052 H 
ATOM     18  H7  <0> d          -0.703  -1.625   1.230  0.00  0.00     0.041 H 
ATOM     19  H8  <0> d          -0.121  -0.212   2.141  0.00  0.00     0.041 H 
ATOM     20  H9  <0> d           1.672   2.118  -1.015  0.00  0.00     0.077 H 
ATOM     21  H10 <0> d           1.485   2.731   0.661  0.00  0.00     0.077 H 
ATOM     22  H11 <0> d           2.104   0.614   1.625  0.00  0.00     0.077 H 
ATOM     23  H12 <0> d           3.154   0.638   0.169  0.00  0.00     0.077 H 
ENDROOT
TORSDOF 0
