REMARK  5 active torsions:
REMARK  status: ('A' for Active; 'I' for Inactive)
REMARK    1  A    between atoms: C1_1  and  C2_2 
REMARK    2  A    between atoms: C2_2  and  C3_3 
REMARK    3  A    between atoms: C3_3  and  C4_4 
REMARK    4  A    between atoms: C4_4  and  C5_6 
REMARK    5  A    between atoms: C4_4  and  O1_12 
ROOT
ATOM      1  C4  <0> d          -0.729   1.579   1.267  0.00  0.00     0.061 C 
ATOM      2  H1  <0> d          -1.776   1.277   1.232  0.00  0.00     0.090 H 
ENDROOT
BRANCH   1   3
ATOM      3  C3  <0> d          -0.013   1.086   0.008  0.00  0.00    -0.037 C 
ATOM      4  H7  <0> d           0.002  -0.004   0.002  0.00  0.00     0.037 H 
ATOM      5  H8  <0> d           1.010   1.463   0.000  0.00  0.00     0.037 H 
BRANCH   3   6
ATOM      6  C2  <0> d          -0.753   1.593  -1.232  0.00  0.00    -0.066 C 
ATOM      7  H5  <0> d          -1.775   1.215  -1.224  0.00  0.00     0.032 H 
ATOM      8  H6  <0> d          -0.767   2.683  -1.226  0.00  0.00     0.032 H 
BRANCH   6   9
ATOM      9  C1  <0> d          -0.037   1.099  -2.490  0.00  0.00    -0.076 C 
ATOM     10  H2  <0> d          -0.564   1.460  -3.373  0.00  0.00     0.027 H 
ATOM     11  H3  <0> d           0.986   1.476  -2.498  0.00  0.00     0.027 H 
ATOM     12  H4  <0> d          -0.022   0.009  -2.496  0.00  0.00     0.027 H 
ENDBRANCH   6   9
ENDBRANCH   3   6
ENDBRANCH   1   3
BRANCH   1  13
ATOM     13  C5  <0> d          -0.074   0.981   2.485  0.00  0.00    -0.030 A 
ATOM     14  C10 <0> d          -0.584  -0.175   3.047  0.00  0.00    -0.074 A 
ATOM     15  C9  <0> d           0.017  -0.724   4.164  0.00  0.00    -0.082 A 
ATOM     16  H13 <0> d          -1.453  -0.648   2.613  0.00  0.00     0.084 H 
ATOM     17  C8  <0> d           1.128  -0.118   4.719  0.00  0.00    -0.083 A 
ATOM     18  H12 <0> d          -0.383  -1.626   4.603  0.00  0.00     0.083 H 
ATOM     19  C7  <0> d           1.639   1.036   4.157  0.00  0.00    -0.082 A 
ATOM     20  H11 <0> d           1.597  -0.547   5.592  0.00  0.00     0.083 H 
ATOM     21  C6  <0> d           1.041   1.583   3.037  0.00  0.00    -0.074 A 
ATOM     22  H10 <0> d           2.508   1.510   4.590  0.00  0.00     0.083 H 
ATOM     23  H9  <0> d           1.443   2.483   2.595  0.00  0.00     0.084 H 
ENDBRANCH   1  13
BRANCH   1  24
ATOM     24  O1  <0> d          -0.647   3.004   1.334  0.00  0.00    -0.391 OA
ATOM     25  H14 <0> d           0.258   3.345   1.368  0.00  0.00     0.210 HD
ENDBRANCH   1  24
TORSDOF 5
