REMARK  0 active torsions:
REMARK  status: ('A' for Active; 'I' for Inactive)
ROOT
ATOM      1  C1  <0> d          -2.386   5.115   0.050  0.00  0.00    -0.043 A 
ATOM      2  C2  <0> d          -2.398   3.754   0.044  0.00  0.00    -0.050 A 
ATOM      3  C3  <0> d          -1.183   3.047   0.029  0.00  0.00     0.085 A 
ATOM      4  C4  <0> d           0.040   3.765   0.021  0.00  0.00     0.088 A 
ATOM      5  C5  <0> d           0.013   5.170   0.028  0.00  0.00    -0.016 A 
ATOM      6  C6  <0> d          -1.183   5.823   0.042  0.00  0.00     0.118 A 
ATOM      7  F1  <0> d          -1.205   7.173   0.048  0.00  0.00    -0.206 F 
ATOM      8  N1  <0> d           1.198   3.096   0.007  0.00  0.00    -0.257 NA
ATOM      9  C7  <0> d           1.192   1.783   0.000  0.00  0.00     0.020 A 
ATOM     10  C8  <0> d          -0.013   1.076   0.008  0.00  0.00     0.020 A 
ATOM     11  N2  <0> d          -1.163   1.710   0.017  0.00  0.00    -0.257 NA
ATOM     12  H1  <0> d          -3.322   5.655   0.061  0.00  0.00     0.088 H 
ATOM     13  H2  <0> d          -3.336   3.220   0.050  0.00  0.00     0.087 H 
ATOM     14  H3  <0> d           0.937   5.730   0.021  0.00  0.00     0.091 H 
ATOM     15  H4  <0> d           2.127   1.244  -0.012  0.00  0.00     0.117 H 
ATOM     16  H5  <0> d           0.002  -0.004   0.002  0.00  0.00     0.117 H 
ENDROOT
TORSDOF 0
