REMARK  2 active torsions:
REMARK  status: ('A' for Active; 'I' for Inactive)
REMARK    1  A    between atoms: C1_1  and  C2_2 
REMARK    2  A    between atoms: C5_5  and  C8_8 
ROOT
ATOM      1  C2  <0> d          -3.397  -2.559   0.020  0.00  0.00    -0.062 A 
ATOM      2  C3  <0> d          -3.567  -1.186   0.029  0.00  0.00    -0.076 A 
ATOM      3  C4  <0> d          -2.467  -0.352   0.023  0.00  0.00    -0.070 A 
ATOM      4  C5  <0> d          -1.184  -0.895   0.008  0.00  0.00    -0.006 A 
ATOM      5  C6  <0> d          -1.019  -2.279  -0.007  0.00  0.00    -0.070 A 
ATOM      6  C7  <0> d          -2.126  -3.104   0.004  0.00  0.00    -0.076 A 
ATOM      7  H5  <0> d          -4.562  -0.766   0.041  0.00  0.00     0.084 H 
ATOM      8  H6  <0> d          -2.601   0.720   0.030  0.00  0.00     0.084 H 
ATOM      9  H7  <0> d          -0.027  -2.705  -0.023  0.00  0.00     0.084 H 
ATOM     10  H8  <0> d          -1.999  -4.176  -0.003  0.00  0.00     0.084 H 
ENDROOT
BRANCH   4  11
ATOM     11  C8  <0> d           0.002  -0.004   0.002  0.00  0.00     0.083 A 
ATOM     12  N2  <0> d          -0.016   1.344   0.009  0.00  0.00    -0.242 NA
ATOM     13  C10 <0> d           1.209   1.790   0.000  0.00  0.00     0.064 A 
ATOM     14  N1  <0> d           2.058   0.739  -0.014  0.00  0.00    -0.358 N 
ATOM     15  H10 <0> d           1.498   2.830   0.003  0.00  0.00     0.143 H 
ATOM     16  C9  <0> d           1.302  -0.400  -0.013  0.00  0.00     0.006 A 
ATOM     17  H1  <0> d           3.057   0.786  -0.023  0.00  0.00     0.166 HD
ATOM     18  H9  <0> d           1.667  -1.416  -0.022  0.00  0.00     0.115 H 
ENDBRANCH   4  11
BRANCH   1  19
ATOM     19  C1  <0> d          -4.602  -3.464   0.027  0.00  0.00    -0.051 C 
ATOM     20  H2  <0> d          -4.902  -3.677  -0.999  0.00  0.00     0.033 H 
ATOM     21  H3  <0> d          -4.352  -4.397   0.533  0.00  0.00     0.033 H 
ATOM     22  H4  <0> d          -5.422  -2.974   0.551  0.00  0.00     0.033 H 
ENDBRANCH   1  19
TORSDOF 2
