REMARK  2 active torsions:
REMARK  status: ('A' for Active; 'I' for Inactive)
REMARK    1  A    between atoms: C1_1  and  N1_2 
REMARK    2  A    between atoms: C2_3  and  C3_7 
ROOT
ATOM      1  N1  <0> d          -2.542   1.236   0.021  0.00  0.00    -0.235 N 
ATOM      2  C2  <0> d          -1.299   1.795   0.018  0.00  0.00     0.170 A 
ATOM      3  N2  <0> d          -1.467   3.103   0.032  0.00  0.00    -0.109 NA
ATOM      4  N3  <0> d          -2.717   3.395   0.033  0.00  0.00    -0.023 NA
ATOM      5  N4  <0> d          -3.433   2.323   0.031  0.00  0.00    -0.044 NA
ENDROOT
BRANCH   2   6
ATOM      6  C3  <0> d          -0.013   1.076   0.008  0.00  0.00    -0.044 C 
ATOM      7  C4  <0> d           1.128   1.755   0.001  0.00  0.00    -0.118 C 
ATOM      8  H5  <0> d           1.114   2.835   0.007  0.00  0.00     0.066 H 
ATOM      9  H6  <0> d           2.071   1.228  -0.011  0.00  0.00     0.066 H 
ATOM     10  H4  <0> d           0.002  -0.004   0.002  0.00  0.00     0.088 H 
ENDBRANCH   2   6
BRANCH   1  11
ATOM     11  C1  <0> d          -2.877  -0.190   0.015  0.00  0.00     0.006 C 
ATOM     12  H1  <0> d          -2.955  -0.549   1.041  0.00  0.00     0.059 H 
ATOM     13  H2  <0> d          -3.828  -0.338  -0.495  0.00  0.00     0.059 H 
ATOM     14  H3  <0> d          -2.096  -0.745  -0.505  0.00  0.00     0.059 H 
ENDBRANCH   1  11
TORSDOF 2
