REMARK  3 active torsions:
REMARK  status: ('A' for Active; 'I' for Inactive)
REMARK    1  A    between atoms: C1_1  and  C2_2 
REMARK    2  A    between atoms: C2_2  and  N1_3 
REMARK    3  A    between atoms: C5_7  and  C6_8 
ROOT
ATOM      1  C6  <0> d           3.065  -0.355  -0.308  0.00  0.00     0.069 C 
ATOM      2  C7  <0> d           3.301  -1.572   0.486  0.00  0.00     0.066 C 
ATOM      3  N3  <0> d           3.484  -2.510   1.099  0.00  0.00    -0.197 NA
ATOM      4  H8  <0> d           3.993  -0.051  -0.792  0.00  0.00     0.066 H 
ATOM      5  H9  <0> d           2.717   0.444   0.346  0.00  0.00     0.066 H 
ENDROOT
BRANCH   1   6
ATOM      6  C5  <0> d           2.020  -0.635  -1.357  0.00  0.00     0.118 A 
ATOM      7  N1  <0> d           0.688  -0.476  -1.203  0.00  0.00    -0.343 N 
ATOM      8  C3  <0> d           0.098  -0.834  -2.386  0.00  0.00    -0.002 A 
ATOM      9  C4  <0> d           1.089  -1.203  -3.219  0.00  0.00     0.019 A 
ATOM     10  H6  <0> d          -0.959  -0.822  -2.608  0.00  0.00     0.113 H 
ATOM     11  N2  <0> d           2.252  -1.075  -2.564  0.00  0.00    -0.245 NA
ATOM     12  H7  <0> d           0.969  -1.543  -4.237  0.00  0.00     0.117 H 
BRANCH   7  13
ATOM     13  C2  <0> d           0.002  -0.004   0.002  0.00  0.00    -0.003 C 
ATOM     14  H4  <0> d           0.529  -0.365   0.885  0.00  0.00     0.064 H 
ATOM     15  H5  <0> d          -1.020  -0.381   0.010  0.00  0.00     0.064 H 
BRANCH  13  16
ATOM     16  C1  <0> d          -0.019   1.526   0.010  0.00  0.00    -0.061 C 
ATOM     17  H1  <0> d           1.004   1.903   0.003  0.00  0.00     0.029 H 
ATOM     18  H2  <0> d          -0.546   1.887  -0.873  0.00  0.00     0.029 H 
ATOM     19  H3  <0> d          -0.529   1.877   0.907  0.00  0.00     0.029 H 
ENDBRANCH  13  16
ENDBRANCH   7  13
ENDBRANCH   1   6
TORSDOF 3
