REMARK  3 active torsions:
REMARK  status: ('A' for Active; 'I' for Inactive)
REMARK    1  A    between atoms: C1_1  and  C2_2 
REMARK    2  A    between atoms: C2_2  and  C6_8 
REMARK    3  A    between atoms: C4_4  and  C5_6 
ROOT
ATOM      1  C2  <0> d          -0.736   1.597   1.252  0.00  0.00    -0.026 A 
ATOM      2  C3  <0> d           0.233   1.173   2.357  0.00  0.00    -0.044 A 
ATOM      3  C4  <0> d          -0.209   2.634   2.247  0.00  0.00     0.038 A 
ATOM      4  H1  <0> d           0.522   3.355   1.882  0.00  0.00     0.057 H 
ATOM      5  H5  <0> d          -0.171   0.586   3.182  0.00  0.00     0.035 H 
ATOM      6  H6  <0> d           1.256   0.933   2.066  0.00  0.00     0.035 H 
ENDROOT
BRANCH   1   7
ATOM      7  C1  <0> d          -0.195   1.653  -0.178  0.00  0.00    -0.068 C 
ATOM      8  H2  <0> d          -0.265   0.664  -0.632  0.00  0.00     0.028 H 
ATOM      9  H3  <0> d           0.847   1.972  -0.161  0.00  0.00     0.028 H 
ATOM     10  H4  <0> d          -0.782   2.362  -0.762  0.00  0.00     0.028 H 
ENDBRANCH   1   7
BRANCH   1  11
ATOM     11  C6  <0> d          -2.197   1.165   1.388  0.00  0.00    -0.046 A 
ATOM     12  C8  <0> d          -2.603  -0.163   0.746  0.00  0.00    -0.061 A 
ATOM     13  C7  <0> d          -2.494  -0.052   2.268  0.00  0.00    -0.061 A 
ATOM     14  H10 <0> d          -3.603  -0.229   0.317  0.00  0.00     0.033 H 
ATOM     15  H11 <0> d          -1.830  -0.728   0.226  0.00  0.00     0.033 H 
ATOM     16  H8  <0> d          -1.649  -0.543   2.749  0.00  0.00     0.033 H 
ATOM     17  H9  <0> d          -3.422  -0.044   2.840  0.00  0.00     0.033 H 
ATOM     18  H7  <0> d          -2.929   1.972   1.381  0.00  0.00     0.041 H 
ENDBRANCH   1  11
BRANCH   3  19
ATOM     19  C5  <0> d          -1.170   3.151   3.287  0.00  0.00     0.177 C 
ATOM     20  O1  <0> d          -1.189   2.658   4.389  0.00  0.00    -0.648 OA
ATOM     21  O2  <0> d          -2.005   4.159   2.987  0.00  0.00    -0.648 OA
ENDBRANCH   3  19
TORSDOF 3
