REMARK  5 active torsions:
REMARK  status: ('A' for Active; 'I' for Inactive)
REMARK    1  A    between atoms: C1_1  and  C2_2 
REMARK    2  A    between atoms: C2_2  and  C3_3 
REMARK    3  A    between atoms: C3_3  and  C4_5 
REMARK    4  A    between atoms: C3_3  and  C5_6 
REMARK    5  A    between atoms: C5_6  and  C6_8 
ROOT
ATOM      1  C3  <0> d          -1.268   0.580   2.240  0.00  0.00    -0.000 C 
ATOM      2  H1  <0> d          -1.531  -0.259   1.762  0.00  0.00     0.051 H 
ENDROOT
BRANCH   1   3
ATOM      3  C2  <0> d          -2.494   1.177   2.933  0.00  0.00    -0.059 C 
ATOM      4  H5  <0> d          -2.192   2.040   3.526  0.00  0.00     0.033 H 
ATOM      5  H6  <0> d          -3.220   1.489   2.182  0.00  0.00     0.033 H 
BRANCH   3   6
ATOM      6  C1  <0> d          -3.126   0.126   3.848  0.00  0.00    -0.076 C 
ATOM      7  H2  <0> d          -3.999   0.552   4.341  0.00  0.00     0.027 H 
ATOM      8  H3  <0> d          -3.428  -0.737   3.255  0.00  0.00     0.027 H 
ATOM      9  H4  <0> d          -2.400  -0.186   4.599  0.00  0.00     0.027 H 
ENDBRANCH   3   6
ENDBRANCH   1   3
BRANCH   1  10
ATOM     10  C4  <0> d          -0.198   0.257   3.285  0.00  0.00    -0.066 C 
ATOM     11  H7  <0> d           0.675  -0.169   2.791  0.00  0.00     0.028 H 
ATOM     12  H8  <0> d           0.088   1.171   3.806  0.00  0.00     0.028 H 
ATOM     13  H9  <0> d          -0.596  -0.461   4.002  0.00  0.00     0.028 H 
ENDBRANCH   1  10
BRANCH   1  14
ATOM     14  C5  <0> d          -0.718   1.572   1.248  0.00  0.00     0.126 C 
ATOM     15  O1  <0> d          -0.843   2.756   1.447  0.00  0.00    -0.298 OA
BRANCH  14  16
ATOM     16  C6  <0> d          -0.013   1.086   0.008  0.00  0.00    -0.021 C 
ATOM     17  H10 <0> d           0.001   0.086   0.003  0.00  0.00     0.037 H 
ATOM     18  H11 <0> d           1.010   1.463   0.000  0.00  0.00     0.037 H 
ATOM     19  H12 <0> d          -0.540   1.447  -0.875  0.00  0.00     0.037 H 
ENDBRANCH  14  16
ENDBRANCH   1  14
TORSDOF 5
