REMARK  0 active torsions:
REMARK  status: ('A' for Active; 'I' for Inactive)
ROOT
ATOM      1  C1  <0> d          -1.200   2.123   0.019  0.00  0.00    -0.006 A 
ATOM      2  C2  <0> d          -0.017   1.428   0.010  0.00  0.00     0.143 A 
ATOM      3  N1  <0> d           1.113   2.134   0.003  0.00  0.00    -0.242 NA
ATOM      4  C3  <0> d           1.067   3.442   0.010  0.00  0.00     0.041 A 
ATOM      5  S1  <0> d          -0.637   3.764   0.027  0.00  0.00    -0.091 SA
ATOM      6  C4  <0> d           0.002  -0.004   0.002  0.00  0.00     0.120 C 
ATOM      7  N2  <0> d           0.018  -1.140  -0.004  0.00  0.00    -0.190 NA
ATOM      8  H1  <0> d          -2.212   1.748   0.022  0.00  0.00     0.099 H 
ATOM      9  H2  <0> d           1.886   4.146   0.005  0.00  0.00     0.126 H 
ENDROOT
TORSDOF 0
