REMARK  3 active torsions:
REMARK  status: ('A' for Active; 'I' for Inactive)
REMARK    1  A    between atoms: C1_1  and  C2_2 
REMARK    2  A    between atoms: C3_4  and  C5_9 
REMARK    3  A    between atoms: C4_6  and  N4_8 
ROOT
ATOM      1  C2  <0> d           0.002  -0.004   0.002  0.00  0.00     0.143 A 
ATOM      2  N1  <0> d           0.006  -0.659  -1.148  0.00  0.00    -0.217 NA
ATOM      3  C3  <0> d           0.024  -1.982  -1.161  0.00  0.00     0.151 A 
ATOM      4  N2  <0> d           0.038  -2.654  -0.024  0.00  0.00    -0.047 NA
ATOM      5  C4  <0> d           0.035  -2.000   1.134  0.00  0.00     0.723 A 
ATOM      6  N3  <0> d           0.022  -0.669   1.142  0.00  0.00    -0.048 NA
ENDROOT
BRANCH   3   7
ATOM      7  C5  <0> d           0.028  -2.722  -2.473  0.00  0.00     0.006 A 
ATOM      8  C7  <0> d           1.215  -3.643  -2.761  0.00  0.00    -0.054 A 
ATOM      9  C6  <0> d          -0.154  -4.240  -2.429  0.00  0.00    -0.054 A 
ATOM     10  H9  <0> d           1.558  -3.715  -3.793  0.00  0.00     0.034 H 
ATOM     11  H10 <0> d           1.993  -3.714  -2.001  0.00  0.00     0.034 H 
ATOM     12  H7  <0> d          -0.277  -4.704  -1.450  0.00  0.00     0.034 H 
ATOM     13  H8  <0> d          -0.712  -4.704  -3.242  0.00  0.00     0.034 H 
ATOM     14  H6  <0> d          -0.410  -2.187  -3.316  0.00  0.00     0.052 H 
ENDBRANCH   3   7
BRANCH   1  15
ATOM     15  C1  <0> d          -0.018   1.503   0.010  0.00  0.00    -0.019 C 
ATOM     16  H1  <0> d           1.004   1.880   0.003  0.00  0.00     0.037 H 
ATOM     17  H2  <0> d          -0.545   1.864  -0.873  0.00  0.00     0.037 H 
ATOM     18  H3  <0> d          -0.529   1.854   0.907  0.00  0.00     0.037 H 
ENDBRANCH   1  15
BRANCH   5  19
ATOM     19  N4  <0> d           0.050  -2.699   2.324  0.00  0.00    -0.231 N 
ATOM     20  H4  <0> d           0.062  -3.669   2.316  0.00  0.00     0.174 HD
ATOM     21  H5  <0> d           0.047  -2.220   3.167  0.00  0.00     0.174 HD
ENDBRANCH   5  19
TORSDOF 3
