REMARK  1 active torsions:
REMARK  status: ('A' for Active; 'I' for Inactive)
REMARK    1  A    between atoms: C1_1  and  C2_2 
ROOT
ATOM      1  C2  <0> d           1.481   5.843  -0.403  0.00  0.00     0.045 C 
ATOM      2  H1  <0> d           1.887   6.712   0.115  0.00  0.00     0.084 H 
ATOM      3  C3  <0> d           2.256   4.561  -0.014  0.00  0.00    -0.014 C 
ATOM      4  C4  <0> d           1.152   3.522   0.009  0.00  0.00    -0.021 A 
ATOM      5  C5  <0> d           1.181   2.149   0.002  0.00  0.00    -0.054 A 
ATOM      6  C6  <0> d          -0.017   1.428   0.010  0.00  0.00     0.045 A 
ATOM      7  C7  <0> d          -1.234   2.116   0.019  0.00  0.00    -0.060 A 
ATOM      8  C8  <0> d          -1.251   3.491   0.035  0.00  0.00    -0.049 A 
ATOM      9  C9  <0> d          -0.056   4.212   0.031  0.00  0.00     0.075 A 
ATOM     10  O1  <0> d           0.147   5.558   0.050  0.00  0.00    -0.345 OA
ATOM     11  C10 <0> d           0.002  -0.004   0.002  0.00  0.00     0.099 C 
ATOM     12  N1  <0> d           0.018  -1.140  -0.004  0.00  0.00    -0.191 NA
ATOM     13  H5  <0> d           2.714   4.666   0.970  0.00  0.00     0.044 H 
ATOM     14  H6  <0> d           3.006   4.316  -0.766  0.00  0.00     0.044 H 
ATOM     15  H7  <0> d           2.126   1.627  -0.009  0.00  0.00     0.086 H 
ATOM     16  H8  <0> d          -2.163   1.566   0.018  0.00  0.00     0.086 H 
ATOM     17  H9  <0> d          -2.194   4.016   0.046  0.00  0.00     0.087 H 
ENDROOT
BRANCH   1  18
ATOM     18  C1  <0> d           1.506   6.052  -1.918  0.00  0.00    -0.051 C 
ATOM     19  H2  <0> d           0.879   6.906  -2.177  0.00  0.00     0.030 H 
ATOM     20  H3  <0> d           2.529   6.241  -2.242  0.00  0.00     0.030 H 
ATOM     21  H4  <0> d           1.126   5.159  -2.415  0.00  0.00     0.030 H 
ENDBRANCH   1  18
TORSDOF 1
