REMARK  2 active torsions:
REMARK  status: ('A' for Active; 'I' for Inactive)
REMARK    1  A    between atoms: C1_1  and  C2_2 
REMARK    2  A    between atoms: C2_2  and  C3_4 
ROOT
ATOM      1  C3  <0> d          -0.175   3.258  -1.130  0.00  0.00     0.011 C 
ATOM      2  H1  <0> d           0.336   3.513  -1.951  0.00  0.00     0.052 H 
ATOM      3  C4  <0> d          -0.696   1.775  -1.216  0.00  0.00    -0.048 C 
ATOM      4  C5  <0> d          -0.013   1.086   0.008  0.00  0.00    -0.037 C 
ATOM      5  H2  <0> d           0.002  -0.004   0.002  0.00  0.00     0.046 H 
ATOM      6  C6  <0> d           1.383   1.810  -0.001  0.00  0.00    -0.052 C 
ATOM      7  C7  <0> d           0.744   3.241   0.133  0.00  0.00    -0.027 C 
ATOM      8  H3  <0> d           1.435   4.077   0.238  0.00  0.00     0.047 H 
ATOM      9  C8  <0> d          -0.207   2.993   1.309  0.00  0.00    -0.102 C 
ATOM     10  C9  <0> d          -0.643   1.751   1.238  0.00  0.00    -0.102 C 
ATOM     11  H7  <0> d          -0.382   1.303  -2.146  0.00  0.00     0.035 H 
ATOM     12  H8  <0> d          -1.781   1.744  -1.116  0.00  0.00     0.035 H 
ATOM     13  H9  <0> d           1.997   1.545   0.859  0.00  0.00     0.035 H 
ATOM     14  H10 <0> d           1.916   1.677  -0.943  0.00  0.00     0.035 H 
ATOM     15  H11 <0> d          -0.475   3.713   2.068  0.00  0.00     0.077 H 
ATOM     16  H12 <0> d          -1.329   1.281   1.927  0.00  0.00     0.076 H 
ENDROOT
BRANCH   1  17
ATOM     17  C2  <0> d          -1.323   4.215  -0.936  0.00  0.00     0.128 C 
ATOM     18  O1  <0> d          -1.701   4.487   0.178  0.00  0.00    -0.298 OA
BRANCH  17  19
ATOM     19  C1  <0> d          -2.000   4.833  -2.133  0.00  0.00    -0.021 C 
ATOM     20  H4  <0> d          -2.382   4.111  -2.709  0.00  0.00     0.037 H 
ATOM     21  H5  <0> d          -2.800   5.492  -1.797  0.00  0.00     0.037 H 
ATOM     22  H6  <0> d          -1.272   5.408  -2.705  0.00  0.00     0.037 H 
ENDBRANCH  17  19
ENDBRANCH   1  17
TORSDOF 2
