REMARK  1 active torsions:
REMARK  status: ('A' for Active; 'I' for Inactive)
REMARK    1  A    between atoms: C4_4  and  C7_7 
ROOT
ATOM      1  C7  <0> d           3.711  -0.707  -0.038  0.00  0.00     0.127 C 
ATOM      2  H1  <0> d           4.509  -0.048  -0.381  0.00  0.00     0.091 H 
ATOM      3  C8  <0> d           4.038  -1.262   1.371  0.00  0.00    -0.033 C 
ATOM      4  C9  <0> d           4.990  -2.439   1.032  0.00  0.00    -0.040 C 
ATOM      5  C10 <0> d           4.407  -2.988  -0.287  0.00  0.00     0.083 C 
ATOM      6  N1  <0> d           3.621  -1.901  -0.904  0.00  0.00    -0.067 N 
ATOM      7  H7  <0> d           4.545  -0.511   1.978  0.00  0.00     0.036 H 
ATOM      8  H8  <0> d           3.136  -1.619   1.869  0.00  0.00     0.036 H 
ATOM      9  H9  <0> d           6.008  -2.080   0.884  0.00  0.00     0.035 H 
ATOM     10  H10 <0> d           4.957  -3.198   1.813  0.00  0.00     0.035 H 
ATOM     11  H11 <0> d           5.216  -3.284  -0.955  0.00  0.00     0.075 H 
ATOM     12  H12 <0> d           3.762  -3.842  -0.080  0.00  0.00     0.075 H 
ATOM     13  H13 <0> d           2.658  -2.187  -0.991  0.00  0.00     0.277 HD
ATOM     14  H14 <0> d           3.994  -1.687  -1.817  0.00  0.00     0.277 HD
ENDROOT
BRANCH   1  15
ATOM     15  C4  <0> d           2.396   0.029  -0.020  0.00  0.00    -0.028 A 
ATOM     16  C3  <0> d           2.377   1.411  -0.013  0.00  0.00    -0.075 A 
ATOM     17  C2  <0> d           1.171   2.086   0.002  0.00  0.00    -0.082 A 
ATOM     18  H4  <0> d           3.305   1.963  -0.020  0.00  0.00     0.084 H 
ATOM     19  C1  <0> d          -0.017   1.378   0.010  0.00  0.00    -0.083 A 
ATOM     20  H3  <0> d           1.156   3.165   0.008  0.00  0.00     0.083 H 
ATOM     21  C6  <0> d           0.002  -0.004   0.002  0.00  0.00    -0.082 A 
ATOM     22  H2  <0> d          -0.959   1.905   0.026  0.00  0.00     0.083 H 
ATOM     23  C5  <0> d           1.208  -0.679  -0.012  0.00  0.00    -0.075 A 
ATOM     24  H6  <0> d          -0.926  -0.557   0.008  0.00  0.00     0.083 H 
ATOM     25  H5  <0> d           1.223  -1.759  -0.018  0.00  0.00     0.084 H 
ENDBRANCH   1  15
TORSDOF 1
