REMARK  1 active torsions:
REMARK  status: ('A' for Active; 'I' for Inactive)
REMARK    1  A    between atoms: C1_1  and  C2_2 
ROOT
ATOM      1  C2  <0> d          -0.718   1.572   1.248  0.00  0.00     0.035 A 
ATOM      2  C3  <0> d          -0.007   1.809   2.413  0.00  0.00    -0.020 A 
ATOM      3  C4  <0> d          -0.699   2.256   3.529  0.00  0.00     0.129 A 
ATOM      4  N1  <0> d          -2.008   2.440   3.444  0.00  0.00    -0.230 NA
ATOM      5  C5  <0> d          -2.651   2.204   2.318  0.00  0.00     0.088 A 
ATOM      6  N2  <0> d          -2.025   1.783   1.237  0.00  0.00    -0.247 NA
ATOM      7 Cl1  <0> d           0.139   2.571   5.016  0.00  0.00    -0.062 Cl
ATOM      8  H4  <0> d           1.061   1.649   2.451  0.00  0.00     0.091 H 
ATOM      9  H5  <0> d          -3.718   2.362   2.279  0.00  0.00     0.146 H 
ENDROOT
BRANCH   1  10
ATOM     10  C1  <0> d          -0.013   1.086   0.008  0.00  0.00    -0.035 C 
ATOM     11  H1  <0> d           0.002  -0.004   0.002  0.00  0.00     0.035 H 
ATOM     12  H2  <0> d           1.010   1.463   0.000  0.00  0.00     0.035 H 
ATOM     13  H3  <0> d          -0.540   1.447  -0.875  0.00  0.00     0.035 H 
ENDBRANCH   1  10
TORSDOF 1
