REMARK  4 active torsions:
REMARK  status: ('A' for Active; 'I' for Inactive)
REMARK    1  A    between atoms: C1_1  and  C2_2 
REMARK    2  A    between atoms: C5_6  and  C6_9 
REMARK    3  A    between atoms: C6_9  and  O3_11 
REMARK    4  A    between atoms: O3_11  and  C7_12 
ROOT
ATOM      1  C2  <0> d           0.002  -0.004   0.002  0.00  0.00     0.036 C 
ATOM      2  H1  <0> d          -1.014  -0.397   0.022  0.00  0.00     0.082 H 
ATOM      3  C3  <0> d           0.755  -0.525  -1.242  0.00  0.00    -0.038 C 
ATOM      4  C4  <0> d           1.516  -1.768  -0.728  0.00  0.00    -0.030 C 
ATOM      5  C5  <0> d           1.132  -1.851   0.766  0.00  0.00     0.122 C 
ATOM      6  H2  <0> d           0.290  -2.528   0.905  0.00  0.00     0.099 H 
ATOM      7  O1  <0> d           0.756  -0.503   1.128  0.00  0.00    -0.371 OA
ATOM      8  H6  <0> d           0.051  -0.805  -2.025  0.00  0.00     0.036 H 
ATOM      9  H7  <0> d           1.455   0.227  -1.608  0.00  0.00     0.036 H 
ATOM     10  H8  <0> d           1.188  -2.662  -1.257  0.00  0.00     0.037 H 
ATOM     11  H9  <0> d           2.591  -1.630  -0.839  0.00  0.00     0.037 H 
ENDROOT
BRANCH   5  12
ATOM     12  C6  <0> d           2.311  -2.307   1.586  0.00  0.00     0.287 C 
ATOM     13  O2  <0> d           2.805  -1.564   2.400  0.00  0.00    -0.262 OA
BRANCH  12  14
ATOM     14  O3  <0> d           2.813  -3.540   1.412  0.00  0.00    -0.324 OA
BRANCH  14  15
ATOM     15  C7  <0> d           3.931  -3.906   2.223  0.00  0.00     0.013 C 
ATOM     16  H10 <0> d           4.758  -3.224   2.030  0.00  0.00     0.067 H 
ATOM     17  H11 <0> d           3.651  -3.850   3.275  0.00  0.00     0.067 H 
ATOM     18  H12 <0> d           4.236  -4.925   1.982  0.00  0.00     0.067 H 
ENDBRANCH  14  15
ENDBRANCH  12  14
ENDBRANCH   5  12
BRANCH   1  19
ATOM     19  C1  <0> d          -0.019   1.526   0.010  0.00  0.00    -0.052 C 
ATOM     20  H3  <0> d           1.004   1.903   0.003  0.00  0.00     0.030 H 
ATOM     21  H4  <0> d          -0.546   1.887  -0.873  0.00  0.00     0.030 H 
ATOM     22  H5  <0> d          -0.529   1.877   0.907  0.00  0.00     0.030 H 
ENDBRANCH   1  19
TORSDOF 4
