REMARK  1 active torsions:
REMARK  status: ('A' for Active; 'I' for Inactive)
REMARK    1  A    between atoms: C3_3  and  N4_10 
ROOT
ATOM      1  C1  <0> d          -0.653  -2.270  -0.003  0.00  0.00    -0.065 A 
ATOM      2  C2  <0> d           0.692  -2.674  -0.018  0.00  0.00    -0.052 A 
ATOM      3  C3  <0> d           1.681  -1.731  -0.023  0.00  0.00     0.074 A 
ATOM      4  C4  <0> d           1.327  -0.362  -0.013  0.00  0.00     0.183 A 
ATOM      5  N1  <0> d           2.028   0.759  -0.013  0.00  0.00    -0.128 NA
ATOM      6  N2  <0> d           1.226   1.766  -0.000  0.00  0.00    -0.143 NA
ATOM      7  C5  <0> d          -0.016   1.356   0.009  0.00  0.00     0.093 A 
ATOM      8  N3  <0> d           0.002  -0.004   0.002  0.00  0.00    -0.296 N 
ATOM      9  C6  <0> d          -0.974  -0.960   0.007  0.00  0.00    -0.012 A 
ATOM     10  H1  <0> d          -1.436  -3.014   0.001  0.00  0.00     0.085 H 
ATOM     11  H2  <0> d           0.944  -3.724  -0.025  0.00  0.00     0.087 H 
ATOM     12  H3  <0> d          -0.896   1.982   0.017  0.00  0.00     0.147 H 
ATOM     13  H4  <0> d          -2.013  -0.663   0.018  0.00  0.00     0.112 H 
ENDROOT
BRANCH   3  14
ATOM     14  N4  <0> d           3.023  -2.114  -0.038  0.00  0.00    -0.396 N 
ATOM     15  H5  <0> d           3.720  -1.439  -0.042  0.00  0.00     0.156 HD
ATOM     16  H6  <0> d           3.259  -3.054  -0.045  0.00  0.00     0.156 HD
ENDBRANCH   3  14
TORSDOF 1
