REMARK  1 active torsions:
REMARK  status: ('A' for Active; 'I' for Inactive)
REMARK    1  A    between atoms: C1_1  and  C2_2 
ROOT
ATOM      1  C2  <0> d           1.145  -0.709  -0.013  0.00  0.00    -0.035 A 
ATOM      2  C3  <0> d           0.002  -0.004   0.002  0.00  0.00    -0.013 A 
ATOM      3  N1  <0> d          -0.016   1.361   0.009  0.00  0.00    -0.332 N 
ATOM      4  H1  <0> d          -0.976   1.898   0.021  0.00  0.00     0.168 HD
ATOM      5  C4  <0> d           1.113   2.096   0.003  0.00  0.00     0.256 A 
ATOM      6  O1  <0> d           1.057   3.313   0.009  0.00  0.00    -0.267 OA
ATOM      7  C5  <0> d           2.412   1.414  -0.013  0.00  0.00     0.043 A 
ATOM      8  C6  <0> d           2.426  -0.000  -0.022  0.00  0.00    -0.013 A 
ATOM      9  C7  <0> d           3.646  -0.678  -0.038  0.00  0.00    -0.071 A 
ATOM     10  C8  <0> d           4.814   0.031  -0.046  0.00  0.00    -0.082 A 
ATOM     11  C9  <0> d           4.805   1.420  -0.038  0.00  0.00    -0.082 A 
ATOM     12  C10 <0> d           3.616   2.116  -0.022  0.00  0.00    -0.067 A 
ATOM     13  H5  <0> d          -0.937  -0.537   0.008  0.00  0.00     0.112 H 
ATOM     14  H6  <0> d           3.666  -1.758  -0.045  0.00  0.00     0.084 H 
ATOM     15  H7  <0> d           5.757  -0.495  -0.059  0.00  0.00     0.083 H 
ATOM     16  H8  <0> d           5.740   1.960  -0.044  0.00  0.00     0.083 H 
ATOM     17  H9  <0> d           3.617   3.196  -0.017  0.00  0.00     0.085 H 
ENDROOT
BRANCH   1  18
ATOM     18  C1  <0> d           1.109  -2.215  -0.022  0.00  0.00    -0.049 C 
ATOM     19  H2  <0> d           0.064  -2.557  -0.013  0.00  0.00     0.033 H 
ATOM     20  H3  <0> d           1.628  -2.599   0.869  0.00  0.00     0.033 H 
ATOM     21  H4  <0> d           1.610  -2.588  -0.927  0.00  0.00     0.033 H 
ENDBRANCH   1  18
TORSDOF 1
