REMARK  4 active torsions:
REMARK  status: ('A' for Active; 'I' for Inactive)
REMARK    1  A    between atoms: C1_1  and  C2_2 
REMARK    2  A    between atoms: C2_2  and  C3_4 
REMARK    3  A    between atoms: C2_2  and  O2_6 
REMARK    4  A    between atoms: O2_6  and  C4_7 
ROOT
ATOM      1  C2  <0> d          -1.329   1.940   0.019  0.00  0.00     0.118 C 
ATOM      2  H1  <0> d          -1.355   2.627   0.865  0.00  0.00     0.099 H 
ENDROOT
BRANCH   1   3
ATOM      3  C1  <0> d          -1.483   2.728  -1.284  0.00  0.00    -0.043 C 
ATOM      4  H2  <0> d          -2.434   3.260  -1.276  0.00  0.00     0.031 H 
ATOM      5  H3  <0> d          -0.667   3.444  -1.373  0.00  0.00     0.031 H 
ATOM      6  H4  <0> d          -1.458   2.041  -2.129  0.00  0.00     0.031 H 
ENDBRANCH   1   3
BRANCH   1   7
ATOM      7  C3  <0> d          -0.014   1.204   0.009  0.00  0.00     0.202 C 
ATOM      8  O1  <0> d           0.002  -0.004   0.002  0.00  0.00    -0.646 OA
ATOM      9  O3  <0> d           1.139   1.891   0.001  0.00  0.00    -0.646 OA
ENDBRANCH   1   7
BRANCH   1  10
ATOM     10  O2  <0> d          -2.400   1.000   0.136  0.00  0.00    -0.380 OA
BRANCH  10  11
ATOM     11  C4  <0> d          -3.551   1.512   0.810  0.00  0.00     0.005 C 
ATOM     12  H5  <0> d          -3.277   1.815   1.820  0.00  0.00     0.066 H 
ATOM     13  H6  <0> d          -3.938   2.374   0.265  0.00  0.00     0.066 H 
ATOM     14  H7  <0> d          -4.318   0.739   0.858  0.00  0.00     0.066 H 
ENDBRANCH  10  11
ENDBRANCH   1  10
TORSDOF 4
