REMARK  1 active torsions:
REMARK  status: ('A' for Active; 'I' for Inactive)
REMARK    1  A    between atoms: C4_4  and  C7_7 
ROOT
ATOM      1  C1  <0> d           0.002  -0.004   0.002  0.00  0.00    -0.083 A 
ATOM      2  C2  <0> d          -0.017   1.378   0.010  0.00  0.00    -0.082 A 
ATOM      3  C3  <0> d           1.171   2.086   0.002  0.00  0.00    -0.076 A 
ATOM      4  C4  <0> d           2.377   1.411  -0.015  0.00  0.00    -0.043 A 
ATOM      5  C5  <0> d           2.396   0.029  -0.021  0.00  0.00    -0.076 A 
ATOM      6  C6  <0> d           1.208  -0.679  -0.013  0.00  0.00    -0.082 A 
ATOM      7  H2  <0> d          -0.926  -0.557   0.008  0.00  0.00     0.083 H 
ATOM      8  H3  <0> d          -0.959   1.905   0.017  0.00  0.00     0.083 H 
ATOM      9  H4  <0> d           1.156   3.165   0.008  0.00  0.00     0.084 H 
ATOM     10  H5  <0> d           3.339  -0.499  -0.033  0.00  0.00     0.084 H 
ATOM     11  H6  <0> d           1.223  -1.759  -0.018  0.00  0.00     0.083 H 
ENDROOT
BRANCH   4  12
ATOM     12  C7  <0> d           3.672   2.182  -0.024  0.00  0.00     0.064 A 
ATOM     13  H1  <0> d           4.538   1.554  -0.234  0.00  0.00     0.064 H 
ATOM     14  C9  <0> d           3.620   3.449  -0.853  0.00  0.00     0.227 A 
ATOM     15  N1  <0> d           3.783   4.224   0.251  0.00  0.00    -0.359 N 
ATOM     16  O1  <0> d           3.487   3.680  -2.036  0.00  0.00    -0.273 OA
ATOM     17  C8  <0> d           3.854   3.097   1.198  0.00  0.00     0.010 A 
ATOM     18  H9  <0> d           3.834   5.185   0.373  0.00  0.00     0.162 HD
ATOM     19  H7  <0> d           3.021   3.062   1.900  0.00  0.00     0.065 H 
ATOM     20  H8  <0> d           4.824   2.993   1.683  0.00  0.00     0.065 H 
ENDBRANCH   4  12
TORSDOF 1
