REMARK  3 active torsions:
REMARK  status: ('A' for Active; 'I' for Inactive)
REMARK    1  A    between atoms: C2_2  and  C5_8 
REMARK    2  A    between atoms: C3_4  and  C4_6 
REMARK    3  A    between atoms: C4_6  and  O1_7 
ROOT
ATOM      1  C1  <0> d          -0.021   1.676   0.011  0.00  0.00    -0.009 A 
ATOM      2  C2  <0> d           1.325   1.990   0.000  0.00  0.00     0.140 A 
ATOM      3  N1  <0> d           2.164   0.948  -0.013  0.00  0.00    -0.236 NA
ATOM      4  C3  <0> d           1.661  -0.255  -0.015  0.00  0.00     0.099 A 
ATOM      5  S1  <0> d           0.002  -0.004   0.002  0.00  0.00    -0.082 SA
ATOM      6  H1  <0> d          -0.871   2.341   0.027  0.00  0.00     0.099 H 
ENDROOT
BRANCH   4   7
ATOM      7  C4  <0> d           2.400  -1.569  -0.030  0.00  0.00     0.063 C 
ATOM      8  H2  <0> d           1.798  -2.319  -0.542  0.00  0.00     0.084 H 
ATOM      9  H3  <0> d           3.349  -1.446  -0.552  0.00  0.00     0.084 H 
BRANCH   7  10
ATOM     10  O1  <0> d           2.647  -1.991   1.313  0.00  0.00    -0.394 OA
ATOM     11  H4  <0> d           3.120  -2.832   1.380  0.00  0.00     0.209 HD
ENDBRANCH   7  10
ENDBRANCH   4   7
BRANCH   2  12
ATOM     12  C5  <0> d           1.803   3.378   0.003  0.00  0.00     0.229 C 
ATOM     13  O2  <0> d           1.000   4.302   0.015  0.00  0.00    -0.643 OA
ATOM     14  O3  <0> d           3.004   3.612  -0.008  0.00  0.00    -0.643 OA
ENDBRANCH   2  12
TORSDOF 3
