REMARK  3 active torsions:
REMARK  status: ('A' for Active; 'I' for Inactive)
REMARK    1  A    between atoms: C1_1  and  C2_2 
REMARK    2  A    between atoms: C5_5  and  C9_9 
REMARK    3  A    between atoms: C6_6  and  C8_8 
ROOT
ATOM      1  C9  <0> d          -0.018   1.468   0.010  0.00  0.00     0.039 C 
ATOM      2  C10 <0> d           0.002  -0.004   0.002  0.00  0.00     0.063 C 
ATOM      3  N1  <0> d           0.018  -1.140  -0.004  0.00  0.00    -0.197 NA
ATOM      4  H10 <0> d          -0.545   1.829  -0.873  0.00  0.00     0.062 H 
ATOM      5  H11 <0> d          -0.528   1.819   0.907  0.00  0.00     0.062 H 
ENDROOT
BRANCH   1   6
ATOM      6  C5  <0> d           1.396   1.989  -0.001  0.00  0.00    -0.039 A 
ATOM      7  C4  <0> d           2.020   2.320   1.188  0.00  0.00    -0.075 A 
ATOM      8  C3  <0> d           3.317   2.798   1.178  0.00  0.00    -0.077 A 
ATOM      9  H5  <0> d           1.494   2.205   2.124  0.00  0.00     0.084 H 
ATOM     10  C2  <0> d           3.990   2.946  -0.020  0.00  0.00    -0.061 A 
ATOM     11  H4  <0> d           3.804   3.056   2.107  0.00  0.00     0.084 H 
ATOM     12  C7  <0> d           3.366   2.615  -1.208  0.00  0.00    -0.071 A 
ATOM     13  C6  <0> d           2.071   2.132  -1.198  0.00  0.00    -0.054 A 
ATOM     14  H6  <0> d           3.893   2.730  -2.145  0.00  0.00     0.085 H 
BRANCH  10  15
ATOM     15  C1  <0> d           5.404   3.466  -0.031  0.00  0.00    -0.051 C 
ATOM     16  H1  <0> d           6.099   2.631   0.048  0.00  0.00     0.033 H 
ATOM     17  H2  <0> d           5.586   4.004  -0.961  0.00  0.00     0.033 H 
ATOM     18  H3  <0> d           5.549   4.140   0.813  0.00  0.00     0.033 H 
ENDBRANCH  10  15
BRANCH  13  19
ATOM     19  C8  <0> d           1.393   1.765  -2.493  0.00  0.00    -0.051 C 
ATOM     20  H7  <0> d           0.875   2.638  -2.892  0.00  0.00     0.033 H 
ATOM     21  H8  <0> d           2.140   1.428  -3.212  0.00  0.00     0.033 H 
ATOM     22  H9  <0> d           0.674   0.966  -2.314  0.00  0.00     0.033 H 
ENDBRANCH  13  19
ENDBRANCH   1   6
TORSDOF 3
