REMARK  5 active torsions:
REMARK  status: ('A' for Active; 'I' for Inactive)
REMARK    1  A    between atoms: C1_1  and  C2_2 
REMARK    2  A    between atoms: C2_2  and  O1_3 
REMARK    3  A    between atoms: O1_3  and  C3_4 
REMARK    4  A    between atoms: C5_6  and  C10_11 
REMARK    5  A    between atoms: C7_8  and  C9_10 
ROOT
ATOM      1  C3  <0> d           2.380   1.409  -0.013  0.00  0.00     0.069 A 
ATOM      2  C4  <0> d           1.169   2.087   0.002  0.00  0.00    -0.045 A 
ATOM      3  C5  <0> d          -0.017   1.378   0.010  0.00  0.00    -0.059 A 
ATOM      4  C6  <0> d           0.002  -0.004   0.002  0.00  0.00    -0.071 A 
ATOM      5  C7  <0> d           1.207  -0.681  -0.013  0.00  0.00    -0.059 A 
ATOM      6  C8  <0> d           2.396   0.022  -0.020  0.00  0.00    -0.045 A 
ATOM      7  H6  <0> d           1.154   3.166   0.008  0.00  0.00     0.088 H 
ATOM      8  H7  <0> d          -0.926  -0.556   0.008  0.00  0.00     0.085 H 
ATOM      9  H8  <0> d           3.337  -0.507  -0.032  0.00  0.00     0.088 H 
ENDROOT
BRANCH   1  10
ATOM     10  O1  <0> d           3.548   2.104  -0.021  0.00  0.00    -0.351 OA
BRANCH  10  11
ATOM     11  C2  <0> d           3.456   3.530  -0.013  0.00  0.00     0.023 C 
ATOM     12  H4  <0> d           2.911   3.863  -0.896  0.00  0.00     0.074 H 
ATOM     13  H5  <0> d           2.928   3.854   0.884  0.00  0.00     0.074 H 
BRANCH  11  14
ATOM     14  C1  <0> d           4.862   4.132  -0.024  0.00  0.00    -0.056 C 
ATOM     15  H1  <0> d           4.791   5.220  -0.018  0.00  0.00     0.030 H 
ATOM     16  H2  <0> d           5.407   3.799   0.859  0.00  0.00     0.030 H 
ATOM     17  H3  <0> d           5.389   3.808  -0.921  0.00  0.00     0.030 H 
ENDBRANCH  11  14
ENDBRANCH  10  11
ENDBRANCH   1  10
BRANCH   5  18
ATOM     18  C9  <0> d           1.224  -2.188  -0.020  0.00  0.00    -0.051 C 
ATOM     19  H9  <0> d           1.218  -2.547  -1.049  0.00  0.00     0.033 H 
ATOM     20  H10 <0> d           2.123  -2.544   0.484  0.00  0.00     0.033 H 
ATOM     21  H11 <0> d           0.343  -2.564   0.501  0.00  0.00     0.033 H 
ENDBRANCH   5  18
BRANCH   3  22
ATOM     22  C10 <0> d          -1.332   2.114   0.020  0.00  0.00    -0.051 C 
ATOM     23  H12 <0> d          -1.645   2.285   1.050  0.00  0.00     0.033 H 
ATOM     24  H13 <0> d          -1.218   3.070  -0.489  0.00  0.00     0.033 H 
ATOM     25  H14 <0> d          -2.086   1.517  -0.494  0.00  0.00     0.033 H 
ENDBRANCH   3  22
TORSDOF 5
