REMARK  7 active torsions:
REMARK  status: ('A' for Active; 'I' for Inactive)
REMARK    1  A    between atoms: C1_1  and  C2_2 
REMARK    2  A    between atoms: C2_2  and  C3_3 
REMARK    3  A    between atoms: C3_3  and  C4_4 
REMARK    4  A    between atoms: C4_4  and  C5_5 
REMARK    5  A    between atoms: C6_6  and  O1_7 
REMARK    6  A    between atoms: O1_7  and  C7_8 
REMARK    7  A    between atoms: C7_8  and  C8_9 
ROOT
ATOM      1  C4  <0> d           0.763  -2.041   1.233  0.00  0.00    -0.048 C 
ATOM      2  H8  <0> d          -0.260  -2.418   1.241  0.00  0.00     0.038 H 
ATOM      3  H9  <0> d           1.273  -2.392   0.336  0.00  0.00     0.038 H 
ENDROOT
BRANCH   1   4
ATOM      4  C3  <0> d           0.742  -0.511   1.242  0.00  0.00    -0.062 C 
ATOM      5  H6  <0> d           1.765  -0.134   1.234  0.00  0.00     0.033 H 
ATOM      6  H7  <0> d           0.232  -0.159   2.138  0.00  0.00     0.033 H 
BRANCH   4   7
ATOM      7  C2  <0> d           0.002  -0.004   0.002  0.00  0.00    -0.068 C 
ATOM      8  H4  <0> d          -1.020  -0.381   0.010  0.00  0.00     0.032 H 
ATOM      9  H5  <0> d           0.512  -0.356  -0.895  0.00  0.00     0.032 H 
BRANCH   7  10
ATOM     10  C1  <0> d          -0.019   1.526   0.010  0.00  0.00    -0.077 C 
ATOM     11  H1  <0> d           1.004   1.903   0.003  0.00  0.00     0.027 H 
ATOM     12  H2  <0> d          -0.546   1.887  -0.873  0.00  0.00     0.027 H 
ATOM     13  H3  <0> d          -0.529   1.877   0.907  0.00  0.00     0.027 H 
ENDBRANCH   7  10
ENDBRANCH   4   7
ENDBRANCH   1   4
BRANCH   1  14
ATOM     14  C5  <0> d           1.492  -2.540   2.454  0.00  0.00    -0.082 C 
ATOM     15  C6  <0> d           0.903  -3.389   3.271  0.00  0.00     0.009 C 
ATOM     16  H11 <0> d          -0.102  -3.727   3.066  0.00  0.00     0.122 H 
ATOM     17  H10 <0> d           2.497  -2.202   2.659  0.00  0.00     0.079 H 
BRANCH  15  18
ATOM     18  O1  <0> d           1.559  -3.838   4.370  0.00  0.00    -0.364 OA
BRANCH  18  19
ATOM     19  C7  <0> d           0.861  -4.757   5.212  0.00  0.00     0.022 C 
ATOM     20  H12 <0> d          -0.049  -4.288   5.586  0.00  0.00     0.074 H 
ATOM     21  H13 <0> d           0.601  -5.649   4.641  0.00  0.00     0.074 H 
BRANCH  19  22
ATOM     22  C8  <0> d           1.754  -5.149   6.391  0.00  0.00    -0.056 C 
ATOM     23  H14 <0> d           1.221  -5.850   7.034  0.00  0.00     0.030 H 
ATOM     24  H15 <0> d           2.664  -5.618   6.018  0.00  0.00     0.030 H 
ATOM     25  H16 <0> d           2.013  -4.258   6.963  0.00  0.00     0.030 H 
ENDBRANCH  19  22
ENDBRANCH  18  19
ENDBRANCH  15  18
ENDBRANCH   1  14
TORSDOF 7
