REMARK  5 active torsions:
REMARK  status: ('A' for Active; 'I' for Inactive)
REMARK    1  A    between atoms: C1_1  and  C2_2 
REMARK    2  A    between atoms: C4_4  and  N2_12 
REMARK    3  A    between atoms: C5_5  and  C6_8 
REMARK    4  A    between atoms: C6_8  and  O2_10 
REMARK    5  A    between atoms: O2_10  and  C7_11 
ROOT
ATOM      1  C2  <0> d           0.002  -0.004   0.002  0.00  0.00     0.008 A 
ATOM      2  C3  <0> d           0.008  -0.781  -1.104  0.00  0.00    -0.034 A 
ATOM      3  C4  <0> d           0.029  -2.124  -0.692  0.00  0.00     0.060 A 
ATOM      4  C5  <0> d           0.035  -2.120   0.697  0.00  0.00     0.135 A 
ATOM      5  N1  <0> d           0.023  -0.796   1.103  0.00  0.00    -0.353 N 
ATOM      6  H1  <0> d           0.028  -0.486   2.022  0.00  0.00     0.166 HD
ATOM      7  H5  <0> d          -0.001  -0.431  -2.126  0.00  0.00     0.090 H 
ENDROOT
BRANCH   4   8
ATOM      8  C6  <0> d           0.053  -3.255   1.539  0.00  0.00     0.311 C 
ATOM      9  O1  <0> d           0.066  -4.372   1.055  0.00  0.00    -0.258 OA
BRANCH   8  10
ATOM     10  O2  <0> d           0.057  -3.100   2.880  0.00  0.00    -0.321 OA
BRANCH  10  11
ATOM     11  C7  <0> d           0.077  -4.291   3.670  0.00  0.00     0.013 C 
ATOM     12  H6  <0> d           0.078  -4.025   4.728  0.00  0.00     0.067 H 
ATOM     13  H7  <0> d          -0.806  -4.890   3.447  0.00  0.00     0.067 H 
ATOM     14  H8  <0> d           0.974  -4.866   3.439  0.00  0.00     0.067 H 
ENDBRANCH  10  11
ENDBRANCH   8  10
ENDBRANCH   4   8
BRANCH   3  15
ATOM     15  N2  <0> d           0.040  -3.244  -1.517  0.00  0.00    -0.397 N 
ATOM     16  H9  <0> d           0.035  -3.136  -2.481  0.00  0.00     0.156 HD
ATOM     17  H10 <0> d           0.054  -4.133  -1.128  0.00  0.00     0.156 HD
ENDBRANCH   3  15
BRANCH   1  18
ATOM     18  C1  <0> d          -0.018   1.503   0.010  0.00  0.00    -0.037 C 
ATOM     19  H2  <0> d           1.004   1.880   0.003  0.00  0.00     0.035 H 
ATOM     20  H3  <0> d          -0.545   1.864  -0.873  0.00  0.00     0.035 H 
ATOM     21  H4  <0> d          -0.529   1.854   0.907  0.00  0.00     0.035 H 
ENDBRANCH   1  18
TORSDOF 5
