REMARK  1 active torsions:
REMARK  status: ('A' for Active; 'I' for Inactive)
REMARK    1  A    between atoms: C7_7  and  N2_12 
ROOT
ATOM      1  C1  <0> d          -4.401  -0.478   0.021  0.00  0.00    -0.082 A 
ATOM      2  C2  <0> d          -5.289   0.588   0.032  0.00  0.00    -0.080 A 
ATOM      3  C3  <0> d          -4.829   1.887   0.037  0.00  0.00    -0.049 A 
ATOM      4  C4  <0> d          -3.461   2.138   0.031  0.00  0.00     0.089 A 
ATOM      5  C5  <0> d          -2.567   1.053   0.020  0.00  0.00     0.028 A 
ATOM      6  C6  <0> d          -3.052  -0.255   0.015  0.00  0.00    -0.068 A 
ATOM      7  C7  <0> d          -1.223   1.644   0.017  0.00  0.00     0.084 A 
ATOM      8  C8  <0> d          -1.409   2.999   0.031  0.00  0.00     0.182 A 
ATOM      9  O1  <0> d          -2.734   3.273   0.034  0.00  0.00    -0.296 OA
ATOM     10  C9  <0> d          -0.364   3.978   0.038  0.00  0.00     0.128 C 
ATOM     11  N1  <0> d           0.466   4.754   0.044  0.00  0.00    -0.189 NA
ATOM     12  H1  <0> d          -4.777  -1.490   0.017  0.00  0.00     0.083 H 
ATOM     13  H2  <0> d          -6.352   0.398   0.036  0.00  0.00     0.083 H 
ATOM     14  H3  <0> d          -5.529   2.709   0.045  0.00  0.00     0.087 H 
ATOM     15  H4  <0> d          -2.365  -1.088   0.007  0.00  0.00     0.085 H 
ENDROOT
BRANCH   7  16
ATOM     16  N2  <0> d          -0.011   0.966   0.007  0.00  0.00    -0.396 N 
ATOM     17  H5  <0> d           0.002  -0.004   0.002  0.00  0.00     0.156 HD
ATOM     18  H6  <0> d           0.822   1.462   0.002  0.00  0.00     0.156 HD
ENDBRANCH   7  16
TORSDOF 1
