REMARK  1 active torsions:
REMARK  status: ('A' for Active; 'I' for Inactive)
REMARK    1  A    between atoms: C4_4  and  O1_5 
ROOT
ATOM      1  C1  <0> d          -0.019   1.524   0.010  0.00  0.00    -0.056 C 
ATOM      2  C2  <0> d           0.002  -0.004   0.002  0.00  0.00    -0.047 C 
ATOM      3  C3  <0> d          -1.376  -0.566   0.187  0.00  0.00    -0.067 C 
ATOM      4  C4  <0> d          -2.372   0.118   0.746  0.00  0.00     0.107 C 
ATOM      5  C5  <0> d          -2.161   1.497   1.212  0.00  0.00     0.181 C 
ATOM      6  O2  <0> d          -3.095   2.201   1.534  0.00  0.00    -0.290 OA
ATOM      7  C6  <0> d          -0.736   2.008   1.278  0.00  0.00    -0.003 C 
ATOM      8  H1  <0> d           1.004   1.902   0.003  0.00  0.00     0.034 H 
ATOM      9  H2  <0> d          -0.548   1.886  -0.871  0.00  0.00     0.034 H 
ATOM     10  H3  <0> d           0.404  -0.351  -0.950  0.00  0.00     0.038 H 
ATOM     11  H4  <0> d           0.643  -0.357   0.810  0.00  0.00     0.038 H 
ATOM     12  H6  <0> d          -1.570  -1.574  -0.149  0.00  0.00     0.081 H 
ATOM     13  H7  <0> d          -0.239   1.608   2.162  0.00  0.00     0.044 H 
ATOM     14  H8  <0> d          -0.734   3.098   1.312  0.00  0.00     0.044 H 
ENDROOT
BRANCH   4  15
ATOM     15  O1  <0> d          -3.593  -0.463   0.888  0.00  0.00    -0.357 OA
ATOM     16  H5  <0> d          -4.254   0.108   1.303  0.00  0.00     0.217 HD
ENDBRANCH   4  15
TORSDOF 1
