REMARK  2 active torsions:
REMARK  status: ('A' for Active; 'I' for Inactive)
REMARK    1  A    between atoms: C1_1  and  C2_2 
REMARK    2  A    between atoms: C5_5  and  C6_8 
ROOT
ATOM      1  C2  <0> d           0.002  -0.004   0.002  0.00  0.00     0.053 A 
ATOM      2  C3  <0> d           0.006  -0.692  -1.201  0.00  0.00    -0.056 A 
ATOM      3  C4  <0> d           0.025  -2.080  -1.158  0.00  0.00    -0.056 A 
ATOM      4  C5  <0> d           0.040  -2.691   0.086  0.00  0.00     0.053 A 
ATOM      5  N1  <0> d           0.035  -1.954   1.180  0.00  0.00    -0.155 NA
ATOM      6  N2  <0> d           0.022  -0.671   1.140  0.00  0.00    -0.155 NA
ATOM      7  H4  <0> d          -0.006  -0.165  -2.144  0.00  0.00     0.086 H 
ATOM      8  H5  <0> d           0.029  -2.665  -2.066  0.00  0.00     0.086 H 
ENDROOT
BRANCH   1   9
ATOM      9  C1  <0> d          -0.018   1.503   0.010  0.00  0.00    -0.034 C 
ATOM     10  H1  <0> d           1.004   1.880   0.003  0.00  0.00     0.035 H 
ATOM     11  H2  <0> d          -0.545   1.864  -0.873  0.00  0.00     0.035 H 
ATOM     12  H3  <0> d          -0.529   1.854   0.907  0.00  0.00     0.035 H 
ENDBRANCH   1   9
BRANCH   4  13
ATOM     13  C6  <0> d           0.061  -4.195   0.189  0.00  0.00    -0.034 C 
ATOM     14  H6  <0> d           1.093  -4.543   0.208  0.00  0.00     0.035 H 
ATOM     15  H7  <0> d          -0.444  -4.504   1.104  0.00  0.00     0.035 H 
ATOM     16  H8  <0> d          -0.452  -4.625  -0.672  0.00  0.00     0.035 H 
ENDBRANCH   4  13
TORSDOF 2
