REMARK  1 active torsions:
REMARK  status: ('A' for Active; 'I' for Inactive)
REMARK    1  A    between atoms: C2_2  and  O1_8 
ROOT
ATOM      1  C1  <0> d           1.165   2.450   0.004  0.00  0.00    -0.027 A 
ATOM      2  C2  <0> d           1.096   3.839   0.012  0.00  0.00     0.084 A 
ATOM      3  C3  <0> d          -0.148   4.452   0.026  0.00  0.00     0.034 A 
ATOM      4  N1  <0> d          -1.253   3.734   0.033  0.00  0.00    -0.269 NA
ATOM      5  C4  <0> d          -1.224   2.416   0.021  0.00  0.00     0.023 A 
ATOM      6  C5  <0> d          -0.021   1.732   0.012  0.00  0.00     0.054 A 
ATOM      7 Cl1  <0> d           0.002  -0.004   0.002  0.00  0.00    -0.083 Cl
ATOM      8  H1  <0> d           2.118   1.943  -0.007  0.00  0.00     0.090 H 
ATOM      9  H2  <0> d          -0.212   5.531   0.032  0.00  0.00     0.119 H 
ATOM     10  H3  <0> d          -2.152   1.863   0.022  0.00  0.00     0.117 H 
ENDROOT
BRANCH   2  11
ATOM     11  O1  <0> d           2.232   4.585   0.004  0.00  0.00    -0.359 OA
ATOM     12  H4  <0> d           2.553   4.805  -0.881  0.00  0.00     0.217 HD
ENDBRANCH   2  11
TORSDOF 1
