REMARK  2 active torsions:
REMARK  status: ('A' for Active; 'I' for Inactive)
REMARK    1  A    between atoms: C3_3  and  C6_6 
REMARK    2  A    between atoms: C6_6  and  O1_7 
ROOT
ATOM      1  C1  <0> d          -2.009  -2.520   0.980  0.00  0.00    -0.086 A 
ATOM      2  C2  <0> d          -1.438  -2.040  -0.119  0.00  0.00    -0.094 A 
ATOM      3  C3  <0> d          -1.433  -0.534   0.013  0.00  0.00    -0.001 A 
ATOM      4  C4  <0> d          -2.087  -0.253   1.348  0.00  0.00    -0.094 A 
ATOM      5  C5  <0> d          -2.405  -1.430   1.874  0.00  0.00    -0.086 A 
ATOM      6  H1  <0> d          -2.160  -3.569   1.185  0.00  0.00     0.083 H 
ATOM      7  H2  <0> d          -1.052  -2.615  -0.947  0.00  0.00     0.077 H 
ATOM      8  H3  <0> d          -2.009  -0.081  -0.794  0.00  0.00     0.055 H 
ATOM      9  H4  <0> d          -2.261   0.717   1.788  0.00  0.00     0.077 H 
ATOM     10  H5  <0> d          -2.888  -1.564   2.830  0.00  0.00     0.083 H 
ENDROOT
BRANCH   3  11
ATOM     11  C6  <0> d           0.002  -0.004   0.002  0.00  0.00     0.026 C 
ATOM     12  H6  <0> d           0.512  -0.356  -0.895  0.00  0.00     0.075 H 
ATOM     13  H7  <0> d           0.529  -0.365   0.885  0.00  0.00     0.075 H 
BRANCH  11  14
ATOM     14  O1  <0> d          -0.017   1.425   0.010  0.00  0.00    -0.400 OA
ATOM     15  H8  <0> d           0.861   1.830   0.004  0.00  0.00     0.209 HD
ENDBRANCH  11  14
ENDBRANCH   3  11
TORSDOF 2
