REMARK  5 active torsions:
REMARK  status: ('A' for Active; 'I' for Inactive)
REMARK    1  A    between atoms: C1_1  and  C2_2 
REMARK    2  A    between atoms: C3_3  and  C5_10 
REMARK    3  A    between atoms: C4_4  and  O1_5 
REMARK    4  A    between atoms: C5_10  and  C6_11 
REMARK    5  A    between atoms: C6_11  and  O2_12 
ROOT
ATOM      1  C2  <0> d          -0.742   1.585  -1.213  0.00  0.00     0.034 A 
ATOM      2  C3  <0> d          -0.186   1.860  -2.416  0.00  0.00     0.022 A 
ATOM      3  C4  <0> d          -1.208   2.296  -3.272  0.00  0.00     0.189 A 
ATOM      4  N1  <0> d          -2.335   2.282  -2.602  0.00  0.00    -0.149 NA
ATOM      5  N2  <0> d          -2.065   1.832  -1.303  0.00  0.00    -0.280 N 
ATOM      6  H2  <0> d          -2.716   1.719  -0.592  0.00  0.00     0.189 HD
ENDROOT
BRANCH   2   7
ATOM      7  C5  <0> d           1.271   1.722  -2.772  0.00  0.00    -0.015 C 
ATOM      8  H6  <0> d           1.530   2.456  -3.535  0.00  0.00     0.043 H 
ATOM      9  H7  <0> d           1.880   1.891  -1.884  0.00  0.00     0.043 H 
BRANCH   7  10
ATOM     10  C6  <0> d           1.534   0.314  -3.310  0.00  0.00     0.021 C 
ATOM     11  H8  <0> d           1.275  -0.421  -2.547  0.00  0.00     0.074 H 
ATOM     12  H9  <0> d           0.925   0.145  -4.198  0.00  0.00     0.074 H 
BRANCH  10  13
ATOM     13  O2  <0> d           2.916   0.183  -3.648  0.00  0.00    -0.401 OA
ATOM     14  H10 <0> d           3.155  -0.687  -3.997  0.00  0.00     0.209 HD
ENDBRANCH  10  13
ENDBRANCH   7  10
ENDBRANCH   2   7
BRANCH   1  15
ATOM     15  C1  <0> d          -0.013   1.086   0.008  0.00  0.00    -0.035 C 
ATOM     16  H3  <0> d           0.002  -0.004   0.002  0.00  0.00     0.035 H 
ATOM     17  H4  <0> d           1.010   1.463   0.000  0.00  0.00     0.035 H 
ATOM     18  H5  <0> d          -0.523   1.437   0.905  0.00  0.00     0.035 H 
ENDBRANCH   1  15
BRANCH   3  19
ATOM     19  O1  <0> d          -1.057   2.668  -4.571  0.00  0.00    -0.343 OA
ATOM     20  H1  <0> d          -1.155   1.942  -5.202  0.00  0.00     0.219 HD
ENDBRANCH   3  19
TORSDOF 5
