REMARK  4 active torsions:
REMARK  status: ('A' for Active; 'I' for Inactive)
REMARK    1  A    between atoms: C1_1  and  C2_2 
REMARK    2  A    between atoms: C4_4  and  C7_10 
REMARK    3  A    between atoms: C5_6  and  S1_8 
REMARK    4  A    between atoms: S1_8  and  C6_9 
ROOT
ATOM      1  C2  <0> d           2.303  -0.051  -0.020  0.00  0.00     0.035 A 
ATOM      2  C3  <0> d           2.321   1.335  -0.013  0.00  0.00    -0.036 A 
ATOM      3  C4  <0> d           1.112   2.013   0.002  0.00  0.00     0.035 A 
ATOM      4  N1  <0> d          -0.016   1.321   0.009  0.00  0.00    -0.228 NA
ATOM      5  C5  <0> d           0.002  -0.004   0.002  0.00  0.00     0.188 A 
ATOM      6  N2  <0> d           1.141  -0.682  -0.013  0.00  0.00    -0.228 NA
ATOM      7  H4  <0> d           3.256   1.875  -0.019  0.00  0.00     0.089 H 
ENDROOT
BRANCH   5   8
ATOM      8  S1  <0> d          -1.524  -0.885   0.012  0.00  0.00    -0.095 SA
BRANCH   8   9
ATOM      9  C6  <0> d          -0.905  -2.586  -0.003  0.00  0.00    -0.027 C 
ATOM     10  H5  <0> d          -1.746  -3.279   0.002  0.00  0.00     0.042 H 
ATOM     11  H6  <0> d          -0.306  -2.747  -0.900  0.00  0.00     0.042 H 
ATOM     12  H7  <0> d          -0.289  -2.756   0.880  0.00  0.00     0.042 H 
ENDBRANCH   8   9
ENDBRANCH   5   8
BRANCH   3  13
ATOM     13  C7  <0> d           1.082   3.519   0.010  0.00  0.00    -0.035 C 
ATOM     14  H8  <0> d           1.085   3.877   1.040  0.00  0.00     0.035 H 
ATOM     15  H9  <0> d           1.960   3.903  -0.510  0.00  0.00     0.035 H 
ATOM     16  H10 <0> d           0.181   3.868  -0.493  0.00  0.00     0.035 H 
ENDBRANCH   3  13
BRANCH   1  17
ATOM     17  C1  <0> d           3.594  -0.830  -0.036  0.00  0.00    -0.035 C 
ATOM     18  H1  <0> d           3.895  -1.013  -1.068  0.00  0.00     0.035 H 
ATOM     19  H2  <0> d           4.369  -0.258   0.473  0.00  0.00     0.035 H 
ATOM     20  H3  <0> d           3.450  -1.782   0.474  0.00  0.00     0.035 H 
ENDBRANCH   1  17
TORSDOF 4
