REMARK  6 active torsions:
REMARK  status: ('A' for Active; 'I' for Inactive)
REMARK    1  A    between atoms: C1_1  and  C2_2 
REMARK    2  A    between atoms: C2_2  and  C3_3 
REMARK    3  A    between atoms: C2_2  and  C4_4 
REMARK    4  A    between atoms: C2_2  and  O1_6 
REMARK    5  A    between atoms: O1_6  and  S1_7 
REMARK    6  A    between atoms: S1_7  and  C6_9 
ROOT
ATOM      1  C4  <0> d          -1.299  -0.161   0.201  0.00  0.00    -0.078 C 
ATOM      2  C5  <0> d          -2.446  -0.364   0.347  0.00  0.00    -0.151 C 
ATOM      3  H7  <0> d          -3.472  -0.545   0.478  0.00  0.00     0.166 H 
ENDROOT
BRANCH   1   4
ATOM      4  C2  <0> d           0.139   0.093   0.017  0.00  0.00     0.132 C 
BRANCH   4   5
ATOM      5  C1  <0> d           0.394   1.602   0.012  0.00  0.00    -0.036 C 
ATOM      6  H1  <0> d           1.438   1.793  -0.235  0.00  0.00     0.033 H 
ATOM      7  H2  <0> d          -0.249   2.076  -0.730  0.00  0.00     0.033 H 
ATOM      8  H3  <0> d           0.173   2.010   0.998  0.00  0.00     0.033 H 
ENDBRANCH   4   5
BRANCH   4   9
ATOM      9  C3  <0> d           0.921  -0.553   1.162  0.00  0.00    -0.036 C 
ATOM     10  H4  <0> d           0.595  -0.127   2.111  0.00  0.00     0.033 H 
ATOM     11  H5  <0> d           0.740  -1.628   1.165  0.00  0.00     0.033 H 
ATOM     12  H6  <0> d           1.986  -0.365   1.026  0.00  0.00     0.033 H 
ENDBRANCH   4   9
BRANCH   4  13
ATOM     13  O1  <0> d           0.566  -0.466  -1.227  0.00  0.00    -0.273 OA
BRANCH  13  14
ATOM     14  S1  <0> d           0.130   0.333  -2.447  0.00  0.00     0.150 S 
ATOM     15  O2  <0> d          -1.282   0.175  -2.475  0.00  0.00    -0.229 OA
BRANCH  14  16
ATOM     16  C6  <0> d           0.867  -0.562  -3.843  0.00  0.00     0.015 C 
ATOM     17  H8  <0> d           0.485  -1.582  -3.862  0.00  0.00     0.048 H 
ATOM     18  H9  <0> d           0.607  -0.059  -4.774  0.00  0.00     0.048 H 
ATOM     19  H10 <0> d           1.951  -0.581  -3.731  0.00  0.00     0.048 H 
ENDBRANCH  14  16
ENDBRANCH  13  14
ENDBRANCH   4  13
ENDBRANCH   1   4
TORSDOF 6
