REMARK  1 active torsions:
REMARK  status: ('A' for Active; 'I' for Inactive)
REMARK    1  A    between atoms: C1_1  and  C2_2 
ROOT
ATOM      1  C2  <0> d           0.002  -0.004   0.002  0.00  0.00     0.014 A 
ATOM      2  C3  <0> d           0.006  -0.665  -1.171  0.00  0.00    -0.061 A 
ATOM      3  C4  <0> d           0.025  -2.073  -1.201  0.00  0.00    -0.079 A 
ATOM      4  C5  <0> d           0.040  -2.772  -0.036  0.00  0.00    -0.055 A 
ATOM      5  C6  <0> d           0.037  -2.071   1.187  0.00  0.00     0.057 A 
ATOM      6  N1  <0> d           0.023  -0.690   1.188  0.00  0.00    -0.309 N 
ATOM      7  C7  <0> d           0.029  -0.298   2.481  0.00  0.00     0.070 A 
ATOM      8  N2  <0> d           0.050  -1.354   3.254  0.00  0.00    -0.253 NA
ATOM      9  C8  <0> d           0.049  -2.462   2.510  0.00  0.00     0.030 A 
ATOM     10  H4  <0> d          -0.007  -0.111  -2.098  0.00  0.00     0.086 H 
ATOM     11  H5  <0> d           0.026  -2.595  -2.146  0.00  0.00     0.083 H 
ATOM     12  H6  <0> d           0.054  -3.852  -0.047  0.00  0.00     0.087 H 
ATOM     13  H7  <0> d           0.018   0.726   2.823  0.00  0.00     0.144 H 
ATOM     14  H8  <0> d           0.064  -3.478   2.876  0.00  0.00     0.118 H 
ENDROOT
BRANCH   1  15
ATOM     15  C1  <0> d          -0.018   1.503   0.010  0.00  0.00    -0.037 C 
ATOM     16  H1  <0> d           1.004   1.880   0.003  0.00  0.00     0.035 H 
ATOM     17  H2  <0> d          -0.545   1.864  -0.873  0.00  0.00     0.035 H 
ATOM     18  H3  <0> d          -0.529   1.854   0.907  0.00  0.00     0.035 H 
ENDBRANCH   1  15
TORSDOF 1
