REMARK  9 active torsions:
REMARK  status: ('A' for Active; 'I' for Inactive)
REMARK    1  A    between atoms: C1_1  and  C2_2 
REMARK    2  A    between atoms: C2_2  and  O1_3 
REMARK    3  A    between atoms: O1_3  and  C3_4 
REMARK    4  A    between atoms: C3_4  and  O2_5 
REMARK    5  A    between atoms: C3_4  and  O3_8 
REMARK    6  A    between atoms: O2_5  and  C4_6 
REMARK    7  A    between atoms: C4_6  and  C5_7 
REMARK    8  A    between atoms: O3_8  and  C6_9 
REMARK    9  A    between atoms: C6_9  and  C7_10 
ROOT
ATOM      1  C3  <0> d           0.858  -1.881  -1.231  0.00  0.00     0.234 C 
ATOM      2  H6  <0> d           1.482  -1.981  -2.119  0.00  0.00     0.179 H 
ENDROOT
BRANCH   1   3
ATOM      3  O1  <0> d           0.533  -0.504  -1.030  0.00  0.00    -0.339 OA
BRANCH   3   4
ATOM      4  C2  <0> d          -0.239  -0.254   0.146  0.00  0.00     0.021 C 
ATOM      5  H4  <0> d           0.288  -0.645   1.016  0.00  0.00     0.074 H 
ATOM      6  H5  <0> d          -1.207  -0.747   0.057  0.00  0.00     0.074 H 
BRANCH   4   7
ATOM      7  C1  <0> d          -0.447   1.253   0.310  0.00  0.00    -0.056 C 
ATOM      8  H1  <0> d           0.521   1.745   0.399  0.00  0.00     0.030 H 
ATOM      9  H2  <0> d          -0.975   1.643  -0.560  0.00  0.00     0.030 H 
ATOM     10  H3  <0> d          -1.036   1.443   1.207  0.00  0.00     0.030 H 
ENDBRANCH   4   7
ENDBRANCH   3   4
ENDBRANCH   1   3
BRANCH   1  11
ATOM     11  O2  <0> d           1.566  -2.374  -0.092  0.00  0.00    -0.339 OA
BRANCH  11  12
ATOM     12  C4  <0> d           2.271  -3.594  -0.330  0.00  0.00     0.021 C 
ATOM     13  H7  <0> d           1.579  -4.346  -0.708  0.00  0.00     0.074 H 
ATOM     14  H8  <0> d           3.058  -3.422  -1.065  0.00  0.00     0.074 H 
BRANCH  12  15
ATOM     15  C5  <0> d           2.894  -4.086   0.978  0.00  0.00    -0.056 C 
ATOM     16  H9  <0> d           2.108  -4.258   1.713  0.00  0.00     0.030 H 
ATOM     17  H10 <0> d           3.432  -5.017   0.797  0.00  0.00     0.030 H 
ATOM     18  H11 <0> d           3.587  -3.334   1.356  0.00  0.00     0.030 H 
ENDBRANCH  12  15
ENDBRANCH  11  12
ENDBRANCH   1  11
BRANCH   1  19
ATOM     19  O3  <0> d          -0.344  -2.633  -1.407  0.00  0.00    -0.339 OA
BRANCH  19  20
ATOM     20  C6  <0> d          -0.917  -2.518  -2.711  0.00  0.00     0.021 C 
ATOM     21  H12 <0> d          -1.085  -1.466  -2.942  0.00  0.00     0.074 H 
ATOM     22  H13 <0> d          -0.237  -2.947  -3.446  0.00  0.00     0.074 H 
BRANCH  20  23
ATOM     23  C7  <0> d          -2.250  -3.267  -2.751  0.00  0.00    -0.056 C 
ATOM     24  H14 <0> d          -2.931  -2.838  -2.015  0.00  0.00     0.030 H 
ATOM     25  H15 <0> d          -2.687  -3.179  -3.745  0.00  0.00     0.030 H 
ATOM     26  H16 <0> d          -2.083  -4.319  -2.519  0.00  0.00     0.030 H 
ENDBRANCH  20  23
ENDBRANCH  19  20
ENDBRANCH   1  19
TORSDOF 9
