REMARK  5 active torsions:
REMARK  status: ('A' for Active; 'I' for Inactive)
REMARK    1  A    between atoms: C1_1  and  C2_2 
REMARK    2  A    between atoms: C3_3  and  C7_9 
REMARK    3  A    between atoms: C4_4  and  C6_8 
REMARK    4  A    between atoms: N1_5  and  C5_7 
REMARK    5  A    between atoms: C7_9  and  C8_11 
ROOT
ATOM      1  C2  <0> d           2.099   0.776  -0.117  0.00  0.00     0.067 A 
ATOM      2  C3  <0> d           1.315  -0.402  -0.079  0.00  0.00     0.059 A 
ATOM      3  C4  <0> d          -0.004  -0.007   0.064  0.00  0.00     0.042 A 
ATOM      4  N1  <0> d          -0.018   1.334   0.109  0.00  0.00    -0.278 N 
ATOM      5  N2  <0> d           1.297   1.797  -0.005  0.00  0.00    -0.177 NA
ENDROOT
BRANCH   2   6
ATOM      6  C7  <0> d           1.807  -1.780  -0.172  0.00  0.00     0.159 C 
ATOM      7  O1  <0> d           2.111  -2.386   0.834  0.00  0.00    -0.293 OA
BRANCH   6   8
ATOM      8  C8  <0> d           1.935  -2.445  -1.519  0.00  0.00    -0.016 C 
ATOM      9  H10 <0> d           1.726  -1.783  -2.239  0.00  0.00     0.038 H 
ATOM     10  H11 <0> d           2.953  -2.812  -1.647  0.00  0.00     0.038 H 
ATOM     11  H12 <0> d           1.237  -3.280  -1.580  0.00  0.00     0.038 H 
ENDBRANCH   6   8
ENDBRANCH   2   6
BRANCH   1  12
ATOM     12  C1  <0> d           3.598   0.838  -0.262  0.00  0.00    -0.033 C 
ATOM     13  H1  <0> d           3.858   0.916  -1.318  0.00  0.00     0.035 H 
ATOM     14  H2  <0> d           3.978   1.709   0.271  0.00  0.00     0.035 H 
ATOM     15  H3  <0> d           4.041  -0.066   0.155  0.00  0.00     0.035 H 
ENDBRANCH   1  12
BRANCH   3  16
ATOM     16  C6  <0> d          -1.204  -0.915   0.152  0.00  0.00    -0.035 C 
ATOM     17  H7  <0> d          -1.593  -1.101  -0.849  0.00  0.00     0.035 H 
ATOM     18  H8  <0> d          -0.911  -1.860   0.609  0.00  0.00     0.035 H 
ATOM     19  H9  <0> d          -1.974  -0.441   0.760  0.00  0.00     0.035 H 
ENDBRANCH   3  16
BRANCH   4  20
ATOM     20  C5  <0> d          -1.212   2.172   0.248  0.00  0.00     0.003 C 
ATOM     21  H4  <0> d          -1.412   2.346   1.305  0.00  0.00     0.059 H 
ATOM     22  H5  <0> d          -1.046   3.126  -0.252  0.00  0.00     0.059 H 
ATOM     23  H6  <0> d          -2.065   1.668  -0.205  0.00  0.00     0.059 H 
ENDBRANCH   4  20
TORSDOF 5
