REMARK  3 active torsions:
REMARK  status: ('A' for Active; 'I' for Inactive)
REMARK    1  A    between atoms: C1_1  and  C2_2 
REMARK    2  A    between atoms: C5_6  and  C8_11 
REMARK    3  A    between atoms: C8_11  and  C10_13 
ROOT
ATOM      1  C2  <0> d          -0.018   1.508   0.010  0.00  0.00     0.000 C 
ATOM      2  H1  <0> d          -0.501   1.845  -0.798  0.00  0.00     0.051 H 
ATOM      3  C3  <0> d           1.428   2.015  -0.001  0.00  0.00    -0.055 C 
ATOM      4  C4  <0> d           2.195   1.389   1.165  0.00  0.00    -0.057 C 
ATOM      5  C5  <0> d           2.268  -0.128   0.982  0.00  0.00    -0.027 C 
ATOM      6  H2  <0> d           2.724  -0.356   0.019  0.00  0.00     0.047 H 
ATOM      7  C6  <0> d           0.854  -0.715   1.030  0.00  0.00    -0.003 C 
ATOM      8  C7  <0> d           0.002  -0.004   0.002  0.00  0.00     0.131 C 
ATOM      9  O1  <0> d          -0.644  -0.628  -0.805  0.00  0.00    -0.298 OA
ATOM     10  H6  <0> d           1.903   1.736  -0.941  0.00  0.00     0.034 H 
ATOM     11  H7  <0> d           1.433   3.100   0.102  0.00  0.00     0.034 H 
ATOM     12  H8  <0> d           1.682   1.617   2.100  0.00  0.00     0.034 H 
ATOM     13  H9  <0> d           3.204   1.799   1.197  0.00  0.00     0.034 H 
ATOM     14  H10 <0> d           0.469  -0.584   1.944  0.00  0.00     0.045 H 
ATOM     15  H11 <0> d           0.891  -1.780   0.801  0.00  0.00     0.045 H 
ENDROOT
BRANCH   5  16
ATOM     16  C8  <0> d           3.099  -0.728   2.087  0.00  0.00    -0.089 C 
ATOM     17  C9  <0> d           4.185  -1.401   1.798  0.00  0.00    -0.119 C 
ATOM     18  H12 <0> d           4.781  -1.831   2.590  0.00  0.00     0.067 H 
ATOM     19  H13 <0> d           4.484  -1.526   0.768  0.00  0.00     0.067 H 
BRANCH  16  20
ATOM     20  C10 <0> d           2.681  -0.553   3.524  0.00  0.00    -0.055 C 
ATOM     21  H14 <0> d           2.029  -1.376   3.816  0.00  0.00     0.033 H 
ATOM     22  H15 <0> d           3.565  -0.547   4.162  0.00  0.00     0.033 H 
ATOM     23  H16 <0> d           2.147   0.391   3.635  0.00  0.00     0.033 H 
ENDBRANCH  16  20
ENDBRANCH   5  16
BRANCH   1  24
ATOM     24  C1  <0> d          -0.728   2.006   1.272  0.00  0.00    -0.066 C 
ATOM     25  H3  <0> d          -0.197   1.646   2.153  0.00  0.00     0.028 H 
ATOM     26  H4  <0> d          -0.741   3.096   1.275  0.00  0.00     0.028 H 
ATOM     27  H5  <0> d          -1.751   1.630   1.285  0.00  0.00     0.028 H 
ENDBRANCH   1  24
TORSDOF 3
