REMARK  8 active torsions:
REMARK  status: ('A' for Active; 'I' for Inactive)
REMARK    1  A    between atoms: C1_1  and  C2_2 
REMARK    2  A    between atoms: C2_2  and  C3_3 
REMARK    3  A    between atoms: C3_3  and  O1_4 
REMARK    4  A    between atoms: O1_4  and  C4_5 
REMARK    5  A    between atoms: C4_5  and  C5_7 
REMARK    6  A    between atoms: C4_5  and  O2_8 
REMARK    7  A    between atoms: O2_8  and  C6_9 
REMARK    8  A    between atoms: C6_9  and  C7_11 
ROOT
ATOM      1  C4  <0> d           1.285  -2.487  -2.439  0.00  0.00     0.136 C 
ATOM      2  H1  <0> d           0.877  -2.063  -3.357  0.00  0.00     0.129 H 
ENDROOT
BRANCH   1   3
ATOM      3  O1  <0> d           0.742  -1.795  -1.313  0.00  0.00    -0.361 OA
BRANCH   3   4
ATOM      4  C3  <0> d           0.768  -0.371  -1.438  0.00  0.00     0.022 C 
ATOM      5  H7  <0> d           0.277  -0.079  -2.366  0.00  0.00     0.074 H 
ATOM      6  H8  <0> d           1.801  -0.026  -1.449  0.00  0.00     0.074 H 
BRANCH   4   7
ATOM      7  C2  <0> d           0.032   0.258  -0.253  0.00  0.00    -0.048 C 
ATOM      8  H5  <0> d           0.523  -0.034   0.676  0.00  0.00     0.035 H 
ATOM      9  H6  <0> d          -1.002  -0.087  -0.241  0.00  0.00     0.035 H 
BRANCH   7  10
ATOM     10  C1  <0> d           0.059   1.782  -0.386  0.00  0.00    -0.075 C 
ATOM     11  H2  <0> d           1.093   2.127  -0.397  0.00  0.00     0.027 H 
ATOM     12  H3  <0> d          -0.431   2.074  -1.315  0.00  0.00     0.027 H 
ATOM     13  H4  <0> d          -0.464   2.230   0.458  0.00  0.00     0.027 H 
ENDBRANCH   7  10
ENDBRANCH   4   7
ENDBRANCH   3   4
ENDBRANCH   1   3
BRANCH   1  14
ATOM     14  C5  <0> d           0.916  -3.969  -2.353  0.00  0.00    -0.031 C 
ATOM     15  H9  <0> d          -0.169  -4.073  -2.351  0.00  0.00     0.034 H 
ATOM     16  H10 <0> d           1.330  -4.497  -3.212  0.00  0.00     0.034 H 
ATOM     17  H11 <0> d           1.323  -4.393  -1.435  0.00  0.00     0.034 H 
ENDBRANCH   1  14
BRANCH   1  18
ATOM     18  O2  <0> d           2.708  -2.350  -2.442  0.00  0.00    -0.290 OA
BRANCH  18  19
ATOM     19  C6  <0> d           3.207  -1.188  -2.891  0.00  0.00     0.257 C 
ATOM     20  O3  <0> d           2.470  -0.357  -3.367  0.00  0.00    -0.266 OA
BRANCH  19  21
ATOM     21  C7  <0> d           4.687  -0.919  -2.802  0.00  0.00     0.004 C 
ATOM     22  H12 <0> d           5.185  -1.775  -2.348  0.00  0.00     0.041 H 
ATOM     23  H13 <0> d           5.087  -0.753  -3.802  0.00  0.00     0.041 H 
ATOM     24  H14 <0> d           4.859  -0.033  -2.191  0.00  0.00     0.041 H 
ENDBRANCH  19  21
ENDBRANCH  18  19
ENDBRANCH   1  18
TORSDOF 8
