REMARK  2 active torsions:
REMARK  status: ('A' for Active; 'I' for Inactive)
REMARK    1  A    between atoms: C1_1  and  N1_2 
REMARK    2  A    between atoms: C2_3  and  O2_9 
ROOT
ATOM      1  N1  <0> d           0.002  -0.004   0.002  0.00  0.00    -0.330 N 
ATOM      2  C2  <0> d          -1.198  -0.849   0.003  0.00  0.00     0.105 C 
ATOM      3  H1  <0> d          -1.624  -0.897   1.005  0.00  0.00     0.117 H 
ATOM      4  C3  <0> d          -0.718  -2.248  -0.442  0.00  0.00    -0.017 C 
ATOM      5  C4  <0> d           0.770  -2.219  -0.024  0.00  0.00     0.013 C 
ATOM      6  C5  <0> d           1.122  -0.747  -0.013  0.00  0.00     0.221 C 
ATOM      7  O1  <0> d           2.251  -0.303  -0.015  0.00  0.00    -0.273 OA
ATOM      8  H5  <0> d          -1.258  -3.032   0.088  0.00  0.00     0.040 H 
ATOM      9  H6  <0> d          -0.818  -2.369  -1.521  0.00  0.00     0.040 H 
ATOM     10  H7  <0> d           0.896  -2.652   0.968  0.00  0.00     0.047 H 
ATOM     11  H8  <0> d           1.382  -2.749  -0.753  0.00  0.00     0.047 H 
ENDROOT
BRANCH   1  12
ATOM     12  C1  <0> d          -0.018   1.461   0.010  0.00  0.00    -0.014 C 
ATOM     13  H2  <0> d           1.005   1.838   0.002  0.00  0.00     0.056 H 
ATOM     14  H3  <0> d          -0.545   1.822  -0.873  0.00  0.00     0.056 H 
ATOM     15  H4  <0> d          -0.528   1.812   0.907  0.00  0.00     0.056 H 
ENDBRANCH   1  12
BRANCH   2  16
ATOM     16  O2  <0> d          -2.163  -0.338  -0.919  0.00  0.00    -0.377 OA
ATOM     17  H9  <0> d          -2.473   0.554  -0.711  0.00  0.00     0.212 HD
ENDBRANCH   2  16
TORSDOF 2
