REMARK  1 active torsions:
REMARK  status: ('A' for Active; 'I' for Inactive)
REMARK    1  A    between atoms: C5_5  and  N1_7 
ROOT
ATOM      1  C1  <0> d          -1.913   2.366   3.625  0.00  0.00    -0.080 A 
ATOM      2  C2  <0> d          -2.204   3.008   2.438  0.00  0.00    -0.076 A 
ATOM      3  C3  <0> d          -1.603   2.609   1.250  0.00  0.00    -0.050 A 
ATOM      4  C4  <0> d          -0.707   1.566   1.255  0.00  0.00    -0.026 A 
ATOM      5  C5  <0> d          -0.412   0.915   2.454  0.00  0.00     0.032 A 
ATOM      6  C6  <0> d          -1.016   1.315   3.636  0.00  0.00    -0.057 A 
ATOM      7  C7  <0> d          -0.013   1.086   0.008  0.00  0.00    -0.038 C 
ATOM      8  C8  <0> d          -0.741   1.587  -1.238  0.00  0.00    -0.061 C 
ATOM      9  C9  <0> d          -0.942   3.101  -1.104  0.00  0.00    -0.061 C 
ATOM     10  C10 <0> d          -1.973   3.354  -0.006  0.00  0.00    -0.040 C 
ATOM     11  H1  <0> d          -2.385   2.684   4.543  0.00  0.00     0.083 H 
ATOM     12  H2  <0> d          -2.905   3.829   2.433  0.00  0.00     0.084 H 
ATOM     13  H3  <0> d          -0.786   0.808   4.562  0.00  0.00     0.086 H 
ATOM     14  H6  <0> d           0.002  -0.004   0.002  0.00  0.00     0.040 H 
ATOM     15  H7  <0> d           1.011   1.459   0.000  0.00  0.00     0.040 H 
ATOM     16  H8  <0> d          -0.142   1.373  -2.123  0.00  0.00     0.033 H 
ATOM     17  H9  <0> d          -1.709   1.093  -1.321  0.00  0.00     0.033 H 
ATOM     18  H10 <0> d           0.002   3.575  -0.837  0.00  0.00     0.033 H 
ATOM     19  H11 <0> d          -1.303   3.508  -2.048  0.00  0.00     0.033 H 
ATOM     20  H12 <0> d          -2.015   4.422   0.208  0.00  0.00     0.040 H 
ATOM     21  H13 <0> d          -2.952   3.017  -0.348  0.00  0.00     0.040 H 
ENDROOT
BRANCH   5  22
ATOM     22  N1  <0> d           0.495  -0.147   2.463  0.00  0.00    -0.399 N 
ATOM     23  H4  <0> d           0.701  -0.602   3.295  0.00  0.00     0.156 HD
ATOM     24  H5  <0> d           0.918  -0.430   1.638  0.00  0.00     0.156 HD
ENDBRANCH   5  22
TORSDOF 1
