REMARK  2 active torsions:
REMARK  status: ('A' for Active; 'I' for Inactive)
REMARK    1  A    between atoms: C1_1  and  S1_2 
REMARK    2  A    between atoms: S1_2  and  C2_3 
ROOT
ATOM      1  C2  <0> d           0.859  -0.290  -1.510  0.00  0.00     0.113 A 
ATOM      2  C3  <0> d           1.112  -1.608  -1.933  0.00  0.00     0.080 A 
ATOM      3  C4  <0> d           1.794  -1.809  -3.138  0.00  0.00    -0.059 A 
ATOM      4  C5  <0> d           2.191  -0.699  -3.863  0.00  0.00    -0.065 A 
ATOM      5  C6  <0> d           1.906   0.567  -3.382  0.00  0.00     0.004 A 
ATOM      6  N1  <0> d           1.258   0.736  -2.246  0.00  0.00    -0.253 NA
ATOM      7  C7  <0> d           0.679  -2.722  -1.145  0.00  0.00     0.102 C 
ATOM      8  N2  <0> d           0.336  -3.606  -0.520  0.00  0.00    -0.191 NA
ATOM      9  H4  <0> d           2.005  -2.807  -3.494  0.00  0.00     0.086 H 
ATOM     10  H5  <0> d           2.719  -0.819  -4.797  0.00  0.00     0.085 H 
ATOM     11  H6  <0> d           2.217   1.431  -3.949  0.00  0.00     0.114 H 
ENDROOT
BRANCH   1  12
ATOM     12  S1  <0> d           0.002  -0.004   0.002  0.00  0.00    -0.113 SA
BRANCH  12  13
ATOM     13  C1  <0> d          -0.022   1.806   0.012  0.00  0.00    -0.029 C 
ATOM     14  H1  <0> d           1.000   2.183   0.004  0.00  0.00     0.042 H 
ATOM     15  H2  <0> d          -0.550   2.167  -0.871  0.00  0.00     0.042 H 
ATOM     16  H3  <0> d          -0.533   2.157   0.909  0.00  0.00     0.042 H 
ENDBRANCH  12  13
ENDBRANCH   1  12
TORSDOF 2
