REMARK  3 active torsions:
REMARK  status: ('A' for Active; 'I' for Inactive)
REMARK    1  A    between atoms: C1_1  and  C2_2 
REMARK    2  A    between atoms: C2_2  and  C3_4 
REMARK    3  A    between atoms: C6_7  and  C9_10 
ROOT
ATOM      1  C3  <0> d          -1.297   1.926   0.019  0.00  0.00     0.009 A 
ATOM      2  C4  <0> d          -1.317   3.326   0.032  0.00  0.00    -0.069 A 
ATOM      3  C5  <0> d          -2.509   3.992   0.037  0.00  0.00    -0.072 A 
ATOM      4  C6  <0> d          -3.710   3.276   0.038  0.00  0.00    -0.037 A 
ATOM      5  C7  <0> d          -3.691   1.878   0.030  0.00  0.00    -0.072 A 
ATOM      6  C8  <0> d          -2.500   1.210   0.021  0.00  0.00    -0.069 A 
ATOM      7  H4  <0> d          -0.389   3.880   0.035  0.00  0.00     0.085 H 
ATOM      8  H5  <0> d          -2.525   5.072   0.043  0.00  0.00     0.084 H 
ATOM      9  H6  <0> d          -4.620   1.326   0.031  0.00  0.00     0.084 H 
ATOM     10  H7  <0> d          -2.487   0.130   0.014  0.00  0.00     0.085 H 
ENDROOT
BRANCH   1  11
ATOM     11  C2  <0> d          -0.014   1.209   0.009  0.00  0.00     0.155 C 
ATOM     12  O1  <0> d           0.002  -0.004   0.002  0.00  0.00    -0.293 OA
BRANCH  11  13
ATOM     13  C1  <0> d           1.280   1.980   0.001  0.00  0.00    -0.017 C 
ATOM     14  H1  <0> d           1.065   3.058   0.008  0.00  0.00     0.038 H 
ATOM     15  H2  <0> d           1.852   1.727  -0.904  0.00  0.00     0.038 H 
ATOM     16  H3  <0> d           1.869   1.717   0.892  0.00  0.00     0.038 H 
ENDBRANCH  11  13
ENDBRANCH   1  11
BRANCH   4  17
ATOM     17  C9  <0> d          -4.998   3.996   0.049  0.00  0.00    -0.082 C 
ATOM     18  C10 <0> d          -5.016   5.323   0.056  0.00  0.00    -0.120 C 
ATOM     19  H9  <0> d          -5.976   5.860   0.064  0.00  0.00     0.066 H 
ATOM     20  H10 <0> d          -4.071   5.886   0.055  0.00  0.00     0.066 H 
ATOM     21  H8  <0> d          -5.943   3.433   0.050  0.00  0.00     0.083 H 
ENDBRANCH   4  17
TORSDOF 3
