REMARK  5 active torsions:
REMARK  status: ('A' for Active; 'I' for Inactive)
REMARK    1  A    between atoms: C1_1  and  C2_2 
REMARK    2  A    between atoms: C2_2  and  N1_3 
REMARK    3  A    between atoms: C4_5  and  C6_8 
REMARK    4  A    between atoms: C6_8  and  C7_10 
REMARK    5  A    between atoms: C6_8  and  O1_11 
ROOT
ATOM      1  N1  <0> d          -1.986   1.643   3.024  0.00  0.00    -0.281 N 
ATOM      2  C3  <0> d          -1.576   0.854   2.009  0.00  0.00     0.008 A 
ATOM      3  C4  <0> d          -0.718   1.572   1.248  0.00  0.00     0.006 A 
ATOM      4  C5  <0> d          -0.606   2.847   1.812  0.00  0.00     0.032 A 
ATOM      5  N2  <0> d          -1.366   2.891   2.876  0.00  0.00    -0.185 NA
ATOM      6  H7  <0> d          -1.877  -0.169   1.837  0.00  0.00     0.115 H 
ATOM      7  H8  <0> d           0.002   3.655   1.434  0.00  0.00     0.118 H 
ENDROOT
BRANCH   3   8
ATOM      8  C6  <0> d          -0.013   1.086   0.008  0.00  0.00     0.060 C 
ATOM      9  H1  <0> d           0.065  -0.011   0.015  0.00  0.00     0.090 H 
BRANCH   8  10
ATOM     10  C7  <0> d          -0.753   1.593  -1.232  0.00  0.00    -0.049 C 
ATOM     11  H9  <0> d          -0.238   1.238  -2.136  0.00  0.00     0.031 H 
ATOM     12  H10 <0> d          -0.768   2.693  -1.225  0.00  0.00     0.031 H 
ATOM     13  H11 <0> d          -1.785   1.212  -1.224  0.00  0.00     0.031 H 
ENDBRANCH   8  10
BRANCH   8  14
ATOM     14  O1  <0> d           1.328   1.580  -0.002  0.00  0.00    -0.391 OA
ATOM     15  H12 <0> d           2.001   1.328  -0.835  0.00  0.00     0.210 HD
ENDBRANCH   8  14
ENDBRANCH   3   8
BRANCH   1  16
ATOM     16  C2  <0> d          -2.919   1.265   4.088  0.00  0.00     0.013 C 
ATOM     17  H5  <0> d          -3.170   0.198   3.993  0.00  0.00     0.066 H 
ATOM     18  H6  <0> d          -3.836   1.867   4.003  0.00  0.00     0.066 H 
BRANCH  16  19
ATOM     19  C1  <0> d          -2.268   1.516   5.450  0.00  0.00    -0.059 C 
ATOM     20  H2  <0> d          -2.969   1.232   6.249  0.00  0.00     0.029 H 
ATOM     21  H3  <0> d          -2.017   2.583   5.545  0.00  0.00     0.029 H 
ATOM     22  H4  <0> d          -1.351   0.914   5.535  0.00  0.00     0.029 H 
ENDBRANCH  16  19
ENDBRANCH   1  16
TORSDOF 5
