REMARK  4 active torsions:
REMARK  status: ('A' for Active; 'I' for Inactive)
REMARK    1  A    between atoms: C2_2  and  C3_3 
REMARK    2  A    between atoms: C3_3  and  N1_4 
REMARK    3  A    between atoms: N1_4  and  C4_5 
REMARK    4  A    between atoms: C4_5  and  C5_6 
ROOT
ATOM      1  C1  <0> d           0.018  -1.178  -0.004  0.00  0.00    -0.152 C 
ATOM      2  C2  <0> d           0.002  -0.004   0.002  0.00  0.00    -0.087 C 
ATOM      3  H2  <0> d           0.032  -2.228  -0.010  0.00  0.00     0.166 H 
ENDROOT
BRANCH   2   4
ATOM      4  C3  <0> d          -0.018   1.468   0.010  0.00  0.00     0.164 C 
ATOM      5  H3  <0> d          -0.545   1.829  -0.873  0.00  0.00     0.099 H 
ATOM      6  H4  <0> d          -0.528   1.819   0.907  0.00  0.00     0.099 H 
BRANCH   4   7
ATOM      7  N1  <0> d           1.360   1.976  -0.000  0.00  0.00     0.096 N 
ATOM      8  H5  <0> d           1.889   1.604   0.774  0.00  0.00     0.317 HD
BRANCH   7   9
ATOM      9  C4  <0> d           1.379   3.445   0.007  0.00  0.00     0.136 C 
ATOM     10  H6  <0> d           0.862   3.820  -0.876  0.00  0.00     0.083 H 
ATOM     11  H7  <0> d           0.879   3.810   0.904  0.00  0.00     0.083 H 
BRANCH   9  12
ATOM     12  C5  <0> d           2.829   3.936  -0.004  0.00  0.00     0.064 C 
ATOM     13  H1  <0> d           3.379   3.484   0.821  0.00  0.00     0.086 H 
ATOM     14  O1  <0> d           3.449   3.592  -1.248  0.00  0.00    -0.384 OA
ATOM     15  C8  <0> d           3.840   4.787  -1.947  0.00  0.00     0.020 C 
ATOM     16  C7  <0> d           4.010   5.862  -0.845  0.00  0.00    -0.043 C 
ATOM     17  H12 <0> d           3.063   5.085  -2.651  0.00  0.00     0.074 H 
ATOM     18  H13 <0> d           4.783   4.627  -2.469  0.00  0.00     0.074 H 
ATOM     19  C6  <0> d           2.861   5.474   0.126  0.00  0.00    -0.037 C 
ATOM     20  H10 <0> d           3.861   6.864  -1.248  0.00  0.00     0.036 H 
ATOM     21  H11 <0> d           4.981   5.777  -0.358  0.00  0.00     0.036 H 
ATOM     22  H8  <0> d           1.916   5.911  -0.197  0.00  0.00     0.036 H 
ATOM     23  H9  <0> d           3.099   5.772   1.147  0.00  0.00     0.036 H 
ENDBRANCH   9  12
ENDBRANCH   7   9
ENDBRANCH   4   7
ENDBRANCH   2   4
TORSDOF 4
