REMARK  4 active torsions:
REMARK  status: ('A' for Active; 'I' for Inactive)
REMARK    1  A    between atoms: C1_1  and  C2_2 
REMARK    2  A    between atoms: C5_6  and  C8_10 
REMARK    3  A    between atoms: C8_10  and  C9_11 
REMARK    4  A    between atoms: C8_10  and  C10_12 
ROOT
ATOM      1  C2  <0> d          -0.683  -0.111  -0.280  0.00  0.00    -0.080 C 
ATOM      2  C3  <0> d          -0.557  -0.800  -1.408  0.00  0.00    -0.036 C 
ATOM      3  C4  <0> d          -0.292  -2.242  -1.377  0.00  0.00     0.154 C 
ATOM      4  O1  <0> d           0.028  -2.842  -2.381  0.00  0.00    -0.293 OA
ATOM      5  C5  <0> d          -0.431  -2.956  -0.048  0.00  0.00     0.011 C 
ATOM      6  H1  <0> d          -1.485  -3.121   0.176  0.00  0.00     0.052 H 
ATOM      7  C6  <0> d           0.195  -2.053   1.024  0.00  0.00    -0.051 C 
ATOM      8  C7  <0> d          -0.573  -0.735   1.080  0.00  0.00    -0.044 C 
ATOM      9  H5  <0> d          -0.650  -0.293  -2.357  0.00  0.00     0.089 H 
ATOM     10  H6  <0> d           0.144  -2.547   1.993  0.00  0.00     0.034 H 
ATOM     11  H7  <0> d           1.236  -1.853   0.769  0.00  0.00     0.034 H 
ATOM     12  H8  <0> d          -0.055  -0.046   1.748  0.00  0.00     0.039 H 
ATOM     13  H9  <0> d          -1.573  -0.925   1.468  0.00  0.00     0.039 H 
ENDROOT
BRANCH   5  14
ATOM     14  C8  <0> d           0.306  -4.296  -0.098  0.00  0.00    -0.051 C 
ATOM     15  H10 <0> d          -0.062  -4.882  -0.940  0.00  0.00     0.040 H 
BRANCH  14  16
ATOM     16  C9  <0> d           1.806  -4.047  -0.267  0.00  0.00    -0.072 C 
ATOM     17  H11 <0> d           1.981  -3.501  -1.194  0.00  0.00     0.028 H 
ATOM     18  H12 <0> d           2.174  -3.461   0.575  0.00  0.00     0.028 H 
ATOM     19  H13 <0> d           2.331  -5.001  -0.302  0.00  0.00     0.028 H 
ENDBRANCH  14  16
BRANCH  14  20
ATOM     20  C10 <0> d           0.059  -5.062   1.204  0.00  0.00    -0.072 C 
ATOM     21  H14 <0> d          -1.013  -5.154   1.374  0.00  0.00     0.028 H 
ATOM     22  H15 <0> d           0.502  -6.055   1.130  0.00  0.00     0.028 H 
ATOM     23  H16 <0> d           0.514  -4.522   2.034  0.00  0.00     0.028 H 
ENDBRANCH  14  20
ENDBRANCH   5  14
BRANCH   1  24
ATOM     24  C1  <0> d          -0.945   1.370  -0.369  0.00  0.00    -0.054 C 
ATOM     25  H2  <0> d           0.004   1.906  -0.392  0.00  0.00     0.033 H 
ATOM     26  H3  <0> d          -1.505   1.586  -1.279  0.00  0.00     0.033 H 
ATOM     27  H4  <0> d          -1.523   1.690   0.497  0.00  0.00     0.033 H 
ENDBRANCH   1  24
TORSDOF 4
