REMARK  1 active torsions:
REMARK  status: ('A' for Active; 'I' for Inactive)
REMARK    1  A    between atoms: C5_6  and  N2_7 
ROOT
ATOM      1  C1  <0> d           2.409   0.098  -0.021  0.00  0.00    -0.041 A 
ATOM      2  C2  <0> d           2.357   1.446  -0.013  0.00  0.00     0.010 A 
ATOM      3  N1  <0> d           1.162   2.095   0.002  0.00  0.00    -0.205 N 
ATOM      4  C3  <0> d          -0.017   1.399   0.010  0.00  0.00     0.177 A 
ATOM      5  C4  <0> d           0.002  -0.004   0.002  0.00  0.00    -0.010 A 
ATOM      6  C5  <0> d           1.217  -0.657  -0.013  0.00  0.00     0.030 A 
ATOM      7  N3  <0> d          -0.991   2.300   0.018  0.00  0.00    -0.109 NA
ATOM      8  N4  <0> d          -0.497   3.487   0.025  0.00  0.00    -0.022 NA
ATOM      9  N5  <0> d           0.792   3.448   0.013  0.00  0.00    -0.040 NA
ATOM     10  H1  <0> d           3.365  -0.404  -0.032  0.00  0.00     0.089 H 
ATOM     11  H2  <0> d           3.274   2.016  -0.018  0.00  0.00     0.115 H 
ATOM     12  H3  <0> d          -0.921  -0.565   0.007  0.00  0.00     0.093 H 
ENDROOT
BRANCH   6  13
ATOM     13  N2  <0> d           1.268  -2.047  -0.021  0.00  0.00    -0.399 N 
ATOM     14  H4  <0> d           0.445  -2.562  -0.015  0.00  0.00     0.156 HD
ATOM     15  H5  <0> d           2.124  -2.502  -0.031  0.00  0.00     0.156 HD
ENDBRANCH   6  13
TORSDOF 1
