REMARK  1 active torsions:
REMARK  status: ('A' for Active; 'I' for Inactive)
REMARK    1  A    between atoms: C3_3  and  N2_12 
ROOT
ATOM      1  C1  <0> d          -1.218   1.750   0.017  0.00  0.00    -0.079 A 
ATOM      2  C2  <0> d          -1.242   3.134   0.031  0.00  0.00    -0.055 A 
ATOM      3  C3  <0> d          -0.056   3.853   0.024  0.00  0.00     0.062 A 
ATOM      4  C4  <0> d           1.162   3.179   0.008  0.00  0.00     0.133 A 
ATOM      5  C5  <0> d           1.179   1.786   0.000  0.00  0.00     0.073 A 
ATOM      6  C6  <0> d          -0.013   1.076   0.008  0.00  0.00    -0.054 A 
ATOM      7  N1  <0> d           2.521   1.404  -0.014  0.00  0.00    -0.300 N 
ATOM      8  H1  <0> d           2.858   0.495  -0.022  0.00  0.00     0.171 HD
ATOM      9  C7  <0> d           3.263   2.529  -0.015  0.00  0.00     0.370 A 
ATOM     10  O1  <0> d           4.478   2.569  -0.026  0.00  0.00    -0.238 OA
ATOM     11  O2  <0> d           2.452   3.599  -0.002  0.00  0.00    -0.257 OA
ATOM     12  H2  <0> d          -2.144   1.196   0.018  0.00  0.00     0.083 H 
ATOM     13  H3  <0> d          -2.188   3.655   0.043  0.00  0.00     0.087 H 
ATOM     14  H4  <0> d           0.002  -0.004   0.002  0.00  0.00     0.087 H 
ENDROOT
BRANCH   3  15
ATOM     15  N2  <0> d          -0.083   5.252   0.032  0.00  0.00    -0.397 N 
ATOM     16  H5  <0> d           0.747   5.753   0.027  0.00  0.00     0.156 HD
ATOM     17  H6  <0> d          -0.932   5.720   0.043  0.00  0.00     0.156 HD
ENDBRANCH   3  15
TORSDOF 1
