REMARK  1 active torsions:
REMARK  status: ('A' for Active; 'I' for Inactive)
REMARK    1  A    between atoms: C3_4  and  O2_8 
ROOT
ATOM      1  C1  <0> d           1.105   2.017   0.002  0.00  0.00     0.069 A 
ATOM      2  N1  <0> d          -0.016   1.325   0.009  0.00  0.00    -0.327 N 
ATOM      3  C2  <0> d           0.002  -0.004   0.002  0.00  0.00     0.217 A 
ATOM      4  C3  <0> d           1.230  -0.663  -0.013  0.00  0.00     0.176 A 
ATOM      5  C4  <0> d           2.391   0.107  -0.020  0.00  0.00     0.239 A 
ATOM      6  N2  <0> d           2.286   1.432  -0.012  0.00  0.00    -0.215 NA
ATOM      7  O1  <0> d           3.611  -0.486  -0.035  0.00  0.00    -0.167 OA
ATOM      8  O3  <0> d          -1.157  -0.708   0.010  0.00  0.00    -0.169 OA
ATOM      9  H1  <0> d           1.055   3.096   0.009  0.00  0.00     0.143 H 
ATOM     10  H3  <0> d          -0.984   1.847   0.021  0.00  0.00     0.168 HD
ENDROOT
BRANCH   4  11
ATOM     11  O2  <0> d           1.293  -2.023  -0.022  0.00  0.00    -0.353 OA
ATOM     12  H2  <0> d           2.270  -2.528  -0.034  0.00  0.00     0.218 HD
ENDBRANCH   4  11
TORSDOF 1
