REMARK  3 active torsions:
REMARK  status: ('A' for Active; 'I' for Inactive)
REMARK    1  A    between atoms: C1_1  and  C2_2 
REMARK       I    between atoms: C2_2  and  N1_4 
REMARK    2  A    between atoms: N1_4  and  C3_5 
REMARK    3  A    between atoms: C3_5  and  C4_6 
ROOT
ATOM      1  C3  <0> d          -1.136  -2.159   0.001  0.00  0.00     0.019 C 
ATOM      2  H5  <0> d          -0.626  -2.510  -0.895  0.00  0.00     0.071 H 
ATOM      3  H6  <0> d          -0.609  -2.520   0.884  0.00  0.00     0.071 H 
ENDROOT
BRANCH   1   4
ATOM      4  N1  <0> d          -1.156  -0.694   0.009  0.00  0.00    -0.357 N 
ATOM      5  C2  <0> d           0.002  -0.004   0.002  0.00  0.00     0.213 C 
ATOM      6  O1  <0> d           1.060  -0.596  -0.011  0.00  0.00    -0.274 OA
ATOM      7  H4  <0> d          -2.002  -0.220   0.020  0.00  0.00     0.162 HD
BRANCH   5   8
ATOM      8  C1  <0> d          -0.018   1.503   0.010  0.00  0.00    -0.003 C 
ATOM      9  H1  <0> d           1.004   1.880   0.003  0.00  0.00     0.040 H 
ATOM     10  H2  <0> d          -0.545   1.864  -0.873  0.00  0.00     0.040 H 
ATOM     11  H3  <0> d          -0.529   1.854   0.907  0.00  0.00     0.040 H 
ENDBRANCH   5   8
ENDBRANCH   1   4
BRANCH   1  12
ATOM     12  C4  <0> d          -2.550  -2.680   0.012  0.00  0.00    -0.034 A 
ATOM     13  C7  <0> d          -3.206  -2.912  -1.151  0.00  0.00    -0.037 A 
ATOM     14  S1  <0> d          -4.788  -3.503  -0.571  0.00  0.00    -0.113 SA
ATOM     15  H9  <0> d          -2.862  -2.775  -2.165  0.00  0.00     0.095 H 
ATOM     16  C6  <0> d          -4.470  -3.393   1.183  0.00  0.00    -0.044 A 
ATOM     17  C5  <0> d          -3.198  -2.925   1.208  0.00  0.00    -0.069 A 
ATOM     18  H8  <0> d          -5.121  -3.638   2.008  0.00  0.00     0.095 H 
ATOM     19  H7  <0> d          -2.699  -2.745   2.149  0.00  0.00     0.085 H 
ENDBRANCH   1  12
TORSDOF 3
