REMARK  5 active torsions:
REMARK  status: ('A' for Active; 'I' for Inactive)
REMARK    1  A    between atoms: C1_1  and  C2_2 
REMARK    2  A    between atoms: C2_2  and  C3_3 
REMARK    3  A    between atoms: C3_3  and  C4_4 
REMARK    4  A    between atoms: C8_8  and  C10_11 
REMARK    5  A    between atoms: C9_9  and  O1_10 
ROOT
ATOM      1  C4  <0> d           1.170   2.086   0.002  0.00  0.00    -0.025 A 
ATOM      2  C5  <0> d          -0.017   1.378   0.010  0.00  0.00    -0.074 A 
ATOM      3  C6  <0> d           0.002  -0.004   0.002  0.00  0.00    -0.082 A 
ATOM      4  C7  <0> d           1.208  -0.681  -0.013  0.00  0.00    -0.074 A 
ATOM      5  C8  <0> d           2.396   0.022  -0.021  0.00  0.00    -0.028 A 
ATOM      6  C9  <0> d           2.380   1.409  -0.014  0.00  0.00     0.077 A 
ATOM      7  H8  <0> d          -0.960   1.905   0.017  0.00  0.00     0.084 H 
ATOM      8  H9  <0> d          -0.926  -0.556   0.008  0.00  0.00     0.083 H 
ATOM      9  H10 <0> d           1.220  -1.761  -0.018  0.00  0.00     0.084 H 
ENDROOT
BRANCH   1  10
ATOM     10  C3  <0> d           1.149   3.593   0.010  0.00  0.00    -0.039 C 
ATOM     11  H6  <0> d           0.216   3.941   0.455  0.00  0.00     0.040 H 
ATOM     12  H7  <0> d           1.991   3.965   0.593  0.00  0.00     0.040 H 
BRANCH  10  13
ATOM     13  C2  <0> d           1.254   4.112  -1.425  0.00  0.00    -0.065 C 
ATOM     14  H4  <0> d           2.186   3.764  -1.870  0.00  0.00     0.032 H 
ATOM     15  H5  <0> d           0.411   3.740  -2.009  0.00  0.00     0.032 H 
BRANCH  13  16
ATOM     16  C1  <0> d           1.232   5.642  -1.417  0.00  0.00    -0.076 C 
ATOM     17  H1  <0> d           2.074   6.014  -0.834  0.00  0.00     0.027 H 
ATOM     18  H2  <0> d           1.307   6.012  -2.440  0.00  0.00     0.027 H 
ATOM     19  H3  <0> d           0.300   5.990  -0.973  0.00  0.00     0.027 H 
ENDBRANCH  13  16
ENDBRANCH  10  13
ENDBRANCH   1  10
BRANCH   6  20
ATOM     20  O1  <0> d           3.548   2.104  -0.021  0.00  0.00    -0.360 OA
ATOM     21  H11 <0> d           3.878   2.309  -0.907  0.00  0.00     0.217 HD
ENDBRANCH   6  20
BRANCH   5  22
ATOM     22  C10 <0> d           3.710  -0.717  -0.037  0.00  0.00    -0.049 C 
ATOM     23  H12 <0> d           4.016  -0.890  -1.068  0.00  0.00     0.033 H 
ATOM     24  H13 <0> d           4.468  -0.122   0.472  0.00  0.00     0.033 H 
ATOM     25  H14 <0> d           3.595  -1.673   0.474  0.00  0.00     0.033 H 
ENDBRANCH   5  22
TORSDOF 5
