REMARK  0 active torsions:
REMARK  status: ('A' for Active; 'I' for Inactive)
ROOT
ATOM      1  C1  <0> d           2.108   0.049  -1.338  0.00  0.00    -0.059 C 
ATOM      2  C2  <0> d           0.680  -0.499  -1.278  0.00  0.00    -0.024 C 
ATOM      3  C3  <0> d           0.002  -0.004   0.002  0.00  0.00     0.216 C 
ATOM      4  H1  <0> d           0.535  -0.346   0.901  0.00  0.00     0.112 H 
ATOM      5  N1  <0> d          -0.018   1.464   0.010  0.00  0.00     0.119 N 
ATOM      6  C4  <0> d           1.344   2.014   0.000  0.00  0.00     0.216 C 
ATOM      7  H2  <0> d           1.274   3.109   0.073  0.00  0.00     0.112 H 
ATOM      8  C5  <0> d           2.062   1.579  -1.280  0.00  0.00    -0.024 C 
ATOM      9  C6  <0> d           2.083   1.514   1.171  0.00  0.00     0.095 C 
ATOM     10  N2  <0> d           2.654   1.129   2.074  0.00  0.00    -0.195 NA
ATOM     11  C7  <0> d          -1.378  -0.514   0.055  0.00  0.00     0.095 C 
ATOM     12  N3  <0> d          -2.443  -0.907   0.096  0.00  0.00    -0.195 NA
ATOM     13  H3  <0> d           2.586  -0.267  -2.277  0.00  0.00     0.033 H 
ATOM     14  H4  <0> d           2.687  -0.333  -0.485  0.00  0.00     0.033 H 
ATOM     15  H5  <0> d           0.114  -0.148  -2.154  0.00  0.00     0.037 H 
ATOM     16  H6  <0> d           0.709  -1.599  -1.277  0.00  0.00     0.037 H 
ATOM     17  H7  <0> d          -0.550   1.829  -0.881  0.00  0.00     0.319 HD
ATOM     18  H8  <0> d           3.087   1.977  -1.281  0.00  0.00     0.037 H 
ATOM     19  H9  <0> d           1.518   1.963  -2.156  0.00  0.00     0.037 H 
ENDROOT
TORSDOF 0
