REMARK  2 active torsions:
REMARK  status: ('A' for Active; 'I' for Inactive)
REMARK    1  A    between atoms: C1_1  and  C2_2 
REMARK    2  A    between atoms: C5_6  and  C8_11 
ROOT
ATOM      1  C2  <0> d           0.776   3.976  -1.478  0.00  0.00    -0.051 C 
ATOM      2  H1  <0> d           1.339   3.498  -2.293  0.00  0.00     0.040 H 
ATOM      3  C3  <0> d           1.392   3.583  -0.134  0.00  0.00    -0.061 C 
ATOM      4  C4  <0> d           1.417   2.060  -0.000  0.00  0.00    -0.055 C 
ATOM      5  C5  <0> d          -0.019   1.526   0.010  0.00  0.00     0.000 C 
ATOM      6  H2  <0> d          -0.552   1.876   0.907  0.00  0.00     0.051 H 
ATOM      7  C6  <0> d          -0.729   2.031  -1.226  0.00  0.00     0.131 C 
ATOM      8  O1  <0> d          -1.316   1.270  -1.957  0.00  0.00    -0.298 OA
ATOM      9  C7  <0> d          -0.685   3.514  -1.523  0.00  0.00    -0.006 C 
ATOM     10  H6  <0> d           2.420   3.971  -0.075  0.00  0.00     0.033 H 
ATOM     11  H7  <0> d           0.792   4.010   0.683  0.00  0.00     0.033 H 
ATOM     12  H8  <0> d           1.964   1.626  -0.851  0.00  0.00     0.034 H 
ATOM     13  H9  <0> d           1.919   1.783   0.938  0.00  0.00     0.034 H 
ATOM     14  H10 <0> d          -1.267   4.065  -0.770  0.00  0.00     0.044 H 
ATOM     15  H11 <0> d          -1.100   3.708  -2.522  0.00  0.00     0.044 H 
ENDROOT
BRANCH   1  16
ATOM     16  C1  <0> d           0.835   5.496  -1.643  0.00  0.00    -0.073 C 
ATOM     17  H3  <0> d           1.883   5.827  -1.610  0.00  0.00     0.028 H 
ATOM     18  H4  <0> d           0.274   5.975  -0.827  0.00  0.00     0.028 H 
ATOM     19  H5  <0> d           0.391   5.778  -2.608  0.00  0.00     0.028 H 
ENDBRANCH   1  16
BRANCH   5  20
ATOM     20  C8  <0> d           0.002  -0.004   0.002  0.00  0.00    -0.066 C 
ATOM     21  H12 <0> d          -1.030  -0.385   0.010  0.00  0.00     0.028 H 
ATOM     22  H13 <0> d           0.534  -0.368   0.893  0.00  0.00     0.028 H 
ATOM     23  H14 <0> d           0.517  -0.359  -0.903  0.00  0.00     0.028 H 
ENDBRANCH   5  20
TORSDOF 2
