REMARK  2 active torsions:
REMARK  status: ('A' for Active; 'I' for Inactive)
REMARK    1  A    between atoms: C1_1  and  N1_2 
REMARK       I    between atoms: N1_2  and  C2_3 
REMARK    2  A    between atoms: C2_3  and  C3_5 
ROOT
ATOM      1  N1  <0> d           3.213   3.579  -0.010  0.00  0.00    -0.360 N 
ATOM      2  C2  <0> d           1.879   3.382   0.001  0.00  0.00     0.272 C 
ATOM      3  O1  <0> d           1.124   4.335   0.013  0.00  0.00    -0.266 OA
ATOM      4  H4  <0> d           3.815   2.819  -0.019  0.00  0.00     0.162 HD
ENDROOT
BRANCH   2   5
ATOM      5  C3  <0> d           1.337   2.011   0.000  0.00  0.00     0.155 A 
ATOM      6  N3  <0> d           2.098   0.924  -0.013  0.00  0.00    -0.137 NA
ATOM      7  N2  <0> d           1.562  -0.242  -0.014  0.00  0.00    -0.110 NA
ATOM      8  S1  <0> d           0.002  -0.004   0.002  0.00  0.00     0.025 SA
ATOM      9  C4  <0> d          -0.021   1.728   0.011  0.00  0.00     0.010 A 
ATOM     10  H5  <0> d          -0.864   2.403   0.019  0.00  0.00     0.101 H 
ENDBRANCH   2   5
BRANCH   1  11
ATOM     11  C1  <0> d           3.752   4.941  -0.009  0.00  0.00    -0.018 C 
ATOM     12  H1  <0> d           4.841   4.900  -0.020  0.00  0.00     0.056 H 
ATOM     13  H2  <0> d           3.400   5.472  -0.893  0.00  0.00     0.056 H 
ATOM     14  H3  <0> d           3.417   5.464   0.886  0.00  0.00     0.056 H 
ENDBRANCH   1  11
TORSDOF 2
