REMARK  4 active torsions:
REMARK  status: ('A' for Active; 'I' for Inactive)
REMARK    1  A    between atoms: C1_1  and  C2_2 
REMARK    2  A    between atoms: C2_2  and  C3_3 
REMARK    3  A    between atoms: C3_3  and  C4_4 
REMARK       I    between atoms: C4_4  and  N1_6 
REMARK    4  A    between atoms: N1_6  and  C5_7 
ROOT
ATOM      1  C3  <0> d           2.462   0.920  -0.017  0.00  0.00     0.009 C 
ATOM      2  H6  <0> d           2.537   0.289   0.869  0.00  0.00     0.047 H 
ATOM      3  H7  <0> d           2.520   0.299  -0.910  0.00  0.00     0.047 H 
ENDROOT
BRANCH   1   4
ATOM      4  C2  <0> d           3.611   1.930  -0.022  0.00  0.00    -0.061 C 
ATOM      5  H4  <0> d           3.537   2.560  -0.908  0.00  0.00     0.033 H 
ATOM      6  H5  <0> d           3.554   2.551   0.872  0.00  0.00     0.033 H 
BRANCH   4   7
ATOM      7  C1  <0> d           4.946   1.183  -0.039  0.00  0.00    -0.076 C 
ATOM      8  H1  <0> d           5.021   0.552   0.847  0.00  0.00     0.027 H 
ATOM      9  H2  <0> d           5.004   0.562  -0.933  0.00  0.00     0.027 H 
ATOM     10  H3  <0> d           5.765   1.903  -0.043  0.00  0.00     0.027 H 
ENDBRANCH   4   7
ENDBRANCH   1   4
BRANCH   1  11
ATOM     11  C4  <0> d           1.147   1.655  -0.000  0.00  0.00     0.217 C 
ATOM     12  O1  <0> d           1.130   2.868   0.007  0.00  0.00    -0.274 OA
ATOM     13  N1  <0> d          -0.011   0.966   0.007  0.00  0.00    -0.365 N 
ATOM     14  H8  <0> d           0.002  -0.004   0.002  0.00  0.00     0.161 HD
BRANCH  13  15
ATOM     15  C5  <0> d          -1.290   1.681   0.017  0.00  0.00    -0.018 C 
ATOM     16  H9  <0> d          -1.352   2.302   0.911  0.00  0.00     0.056 H 
ATOM     17  H10 <0> d          -1.360   2.312  -0.869  0.00  0.00     0.056 H 
ATOM     18  H11 <0> d          -2.108   0.962   0.017  0.00  0.00     0.056 H 
ENDBRANCH  13  15
ENDBRANCH   1  11
TORSDOF 4
