REMARK  3 active torsions:
REMARK  status: ('A' for Active; 'I' for Inactive)
REMARK    1  A    between atoms: C1_1  and  C2_2 
REMARK    2  A    between atoms: C2_2  and  C3_4 
REMARK    3  A    between atoms: C2_2  and  C6_7 
ROOT
ATOM      1  C6  <0> d           0.742  -0.511   1.242  0.00  0.00     0.117 C 
ATOM      2  C7  <0> d           0.762  -1.983   1.233  0.00  0.00     0.079 C 
ATOM      3  N1  <0> d           0.777  -3.119   1.227  0.00  0.00    -0.196 NA
ATOM      4  C8  <0> d           2.123  -0.001   1.231  0.00  0.00     0.079 C 
ATOM      5  N2  <0> d           3.189   0.392   1.223  0.00  0.00    -0.196 NA
ATOM      6  H10 <0> d           0.232  -0.159   2.138  0.00  0.00     0.086 H 
ENDROOT
BRANCH   1   7
ATOM      7  C2  <0> d           0.002  -0.004   0.002  0.00  0.00    -0.026 C 
ATOM      8  H1  <0> d           0.512  -0.356  -0.895  0.00  0.00     0.043 H 
BRANCH   7   9
ATOM      9  C1  <0> d          -0.019   1.526   0.010  0.00  0.00    -0.070 C 
ATOM     10  H2  <0> d           1.004   1.903   0.003  0.00  0.00     0.028 H 
ATOM     11  H3  <0> d          -0.546   1.887  -0.873  0.00  0.00     0.028 H 
ATOM     12  H4  <0> d          -0.529   1.877   0.907  0.00  0.00     0.028 H 
ENDBRANCH   7   9
BRANCH   7  13
ATOM     13  C3  <0> d          -1.433  -0.534   0.013  0.00  0.00    -0.049 A 
ATOM     14  C5  <0> d          -2.342  -0.135  -1.152  0.00  0.00    -0.061 A 
ATOM     15  C4  <0> d          -1.813  -1.567  -1.049  0.00  0.00    -0.061 A 
ATOM     16  H8  <0> d          -3.397   0.028  -0.933  0.00  0.00     0.033 H 
ATOM     17  H9  <0> d          -1.917   0.504  -1.926  0.00  0.00     0.033 H 
ATOM     18  H6  <0> d          -1.040  -1.870  -1.756  0.00  0.00     0.033 H 
ATOM     19  H7  <0> d          -2.520  -2.346  -0.764  0.00  0.00     0.033 H 
ATOM     20  H5  <0> d          -1.891  -0.632   0.997  0.00  0.00     0.040 H 
ENDBRANCH   7  13
ENDBRANCH   1   7
TORSDOF 3
