REMARK  1 active torsions:
REMARK  status: ('A' for Active; 'I' for Inactive)
REMARK    1  A    between atoms: C5_5  and  N1_8 
ROOT
ATOM      1  C1  <0> d          -0.013   1.076   0.008  0.00  0.00    -0.006 A 
ATOM      2  C2  <0> d           1.177   1.784   0.000  0.00  0.00     0.122 A 
ATOM      3  C3  <0> d           1.162   3.168   0.008  0.00  0.00    -0.006 A 
ATOM      4  C4  <0> d          -0.043   3.848   0.023  0.00  0.00     0.148 A 
ATOM      5  C5  <0> d          -1.238   3.140   0.030  0.00  0.00     0.104 A 
ATOM      6  C6  <0> d          -1.220   1.750   0.017  0.00  0.00     0.148 A 
ATOM      7  F1  <0> d          -2.381   1.059   0.019  0.00  0.00    -0.203 F 
ATOM      8  F2  <0> d          -0.057   5.199   0.030  0.00  0.00    -0.203 F 
ATOM      9  F3  <0> d           2.355   1.122  -0.015  0.00  0.00    -0.206 F 
ATOM     10  H1  <0> d           0.002  -0.004   0.002  0.00  0.00     0.093 H 
ATOM     11  H2  <0> d           2.092   3.718   0.002  0.00  0.00     0.093 H 
ENDROOT
BRANCH   5  12
ATOM     12  N1  <0> d          -2.461   3.826   0.045  0.00  0.00    -0.394 N 
ATOM     13  H3  <0> d          -2.472   4.796   0.050  0.00  0.00     0.156 HD
ATOM     14  H4  <0> d          -3.295   3.331   0.051  0.00  0.00     0.156 HD
ENDBRANCH   5  12
TORSDOF 1
