REMARK  2 active torsions:
REMARK  status: ('A' for Active; 'I' for Inactive)
REMARK    1  A    between atoms: C1_1  and  O1_2 
REMARK    2  A    between atoms: O1_2  and  C2_3 
ROOT
ATOM      1  C2  <0> d           0.605  -0.607  -1.055  0.00  0.00     0.203 A 
ATOM      2  C3  <0> d           0.651  -1.995  -1.122  0.00  0.00     0.172 A 
ATOM      3  C4  <0> d           1.269  -2.598  -2.205  0.00  0.00    -0.003 A 
ATOM      4  C5  <0> d           1.823  -1.785  -3.188  0.00  0.00     0.137 A 
ATOM      5  C6  <0> d           1.739  -0.411  -3.054  0.00  0.00     0.042 A 
ATOM      6  N1  <0> d           1.138   0.132  -2.012  0.00  0.00    -0.231 NA
ATOM      7  F1  <0> d           2.435  -2.331  -4.261  0.00  0.00    -0.204 F 
ATOM      8  F2  <0> d           0.100  -2.747  -0.143  0.00  0.00    -0.201 F 
ATOM      9  H4  <0> d           1.321  -3.673  -2.284  0.00  0.00     0.093 H 
ATOM     10  H5  <0> d           2.167   0.225  -3.815  0.00  0.00     0.119 H 
ENDROOT
BRANCH   1  11
ATOM     11  O1  <0> d           0.002  -0.004   0.002  0.00  0.00    -0.337 OA
BRANCH  11  12
ATOM     12  C1  <0> d          -0.017   1.425   0.010  0.00  0.00     0.012 C 
ATOM     13  H1  <0> d           1.005   1.802   0.002  0.00  0.00     0.067 H 
ATOM     14  H2  <0> d          -0.544   1.786  -0.873  0.00  0.00     0.067 H 
ATOM     15  H3  <0> d          -0.527   1.776   0.907  0.00  0.00     0.067 H 
ENDBRANCH  11  12
ENDBRANCH   1  11
TORSDOF 2
