REMARK  1 active torsions:
REMARK  status: ('A' for Active; 'I' for Inactive)
REMARK    1  A    between atoms: N3_9  and  C7_10 
ROOT
ATOM      1  C7  <0> d          -3.675   3.810   0.056  0.00  0.00     0.097 C 
ATOM      2  C8  <0> d          -4.171   3.731  -1.328  0.00  0.00     0.081 C 
ATOM      3  N4  <0> d          -4.554   3.669  -2.395  0.00  0.00    -0.195 NA
ATOM      4  H5  <0> d          -3.872   2.868   0.567  0.00  0.00     0.090 H 
ATOM      5  H6  <0> d          -4.184   4.620   0.578  0.00  0.00     0.090 H 
ENDROOT
BRANCH   1   6
ATOM      6  N3  <0> d          -2.233   4.067   0.044  0.00  0.00    -0.236 N 
ATOM      7  C4  <0> d          -1.230   3.127   0.030  0.00  0.00     0.086 A 
ATOM      8  C3  <0> d          -1.209   1.737   0.017  0.00  0.00    -0.053 A 
ATOM      9  C5  <0> d          -0.022   3.847   0.022  0.00  0.00     0.109 A 
ATOM     10  C2  <0> d          -0.013   1.076   0.008  0.00  0.00    -0.081 A 
ATOM     11  H3  <0> d          -2.135   1.181   0.019  0.00  0.00     0.087 H 
ATOM     12  C1  <0> d           1.184   1.781   0.000  0.00  0.00    -0.081 A 
ATOM     13  H2  <0> d           0.002  -0.004   0.002  0.00  0.00     0.083 H 
ATOM     14  C6  <0> d           1.191   3.145   0.007  0.00  0.00    -0.051 A 
ATOM     15  H1  <0> d           2.121   1.242  -0.011  0.00  0.00     0.083 H 
ATOM     16  H4  <0> d           2.127   3.682   0.001  0.00  0.00     0.087 H 
ATOM     17  N1  <0> d          -0.328   5.160   0.032  0.00  0.00    -0.130 NA
ATOM     18  N2  <0> d          -1.604   5.321   0.044  0.00  0.00    -0.064 NA
ENDBRANCH   1   6
TORSDOF 1
