REMARK  2 active torsions:
REMARK  status: ('A' for Active; 'I' for Inactive)
REMARK    1  A    between atoms: C4_5  and  C5_7 
REMARK    2  A    between atoms: C5_7  and  O2_8 
ROOT
ATOM      1  C1  <0> d           1.494   1.890  -0.002  0.00  0.00    -0.038 C 
ATOM      2  C2  <0> d           2.056   0.734  -0.867  0.00  0.00     0.020 C 
ATOM      3  O1  <0> d           1.275  -0.417  -0.510  0.00  0.00    -0.391 OA
ATOM      4  C3  <0> d           0.002  -0.004   0.002  0.00  0.00     0.025 C 
ATOM      5  C4  <0> d          -0.019   1.540   0.011  0.00  0.00    -0.011 C 
ATOM      6  H1  <0> d          -0.514   1.926  -0.881  0.00  0.00     0.046 H 
ATOM      7  H2  <0> d           1.670   2.856  -0.475  0.00  0.00     0.036 H 
ATOM      8  H3  <0> d           1.911   1.866   1.005  0.00  0.00     0.036 H 
ATOM      9  H4  <0> d           3.108   0.564  -0.635  0.00  0.00     0.074 H 
ATOM     10  H5  <0> d           1.934   0.960  -1.927  0.00  0.00     0.074 H 
ATOM     11  H6  <0> d          -0.129  -0.381   1.016  0.00  0.00     0.075 H 
ATOM     12  H7  <0> d          -0.794  -0.381  -0.639  0.00  0.00     0.075 H 
ENDROOT
BRANCH   5  13
ATOM     13  C5  <0> d          -0.690   2.068   1.280  0.00  0.00     0.022 C 
ATOM     14  H8  <0> d          -0.210   1.628   2.154  0.00  0.00     0.074 H 
ATOM     15  H9  <0> d          -0.591   3.153   1.319  0.00  0.00     0.074 H 
BRANCH  13  16
ATOM     16  O2  <0> d          -2.074   1.716   1.269  0.00  0.00    -0.400 OA
ATOM     17  H10 <0> d          -2.564   2.019   2.046  0.00  0.00     0.209 HD
ENDBRANCH  13  16
ENDBRANCH   5  13
TORSDOF 2
