REMARK  2 active torsions:
REMARK  status: ('A' for Active; 'I' for Inactive)
REMARK    1  A    between atoms: C1_1  and  N1_2 
REMARK       I    between atoms: N1_2  and  C2_3 
REMARK    2  A    between atoms: C2_3  and  C3_5 
ROOT
ATOM      1  C3  <0> d          -1.135  -2.201   0.001  0.00  0.00     0.027 C 
ATOM      2  H1  <0> d          -0.609  -2.565   0.883  0.00  0.00     0.055 H 
ATOM      3  C4  <0> d          -2.573  -2.736   0.001  0.00  0.00    -0.051 C 
ATOM      4  C5  <0> d          -2.524  -4.256   0.168  0.00  0.00    -0.049 C 
ATOM      5  C6  <0> d          -1.545  -4.854  -0.800  0.00  0.00    -0.106 C 
ATOM      6  C7  <0> d          -0.631  -4.177  -1.418  0.00  0.00    -0.106 C 
ATOM      7  C8  <0> d          -0.429  -2.699  -1.262  0.00  0.00    -0.039 C 
ATOM      8  H6  <0> d          -3.129  -2.292   0.827  0.00  0.00     0.034 H 
ATOM      9  H7  <0> d          -3.056  -2.489  -0.944  0.00  0.00     0.034 H 
ATOM     10  H8  <0> d          -3.514  -4.672  -0.016  0.00  0.00     0.038 H 
ATOM     11  H9  <0> d          -2.216  -4.492   1.186  0.00  0.00     0.038 H 
ATOM     12  H10 <0> d          -1.607  -5.915  -0.992  0.00  0.00     0.076 H 
ATOM     13  H11 <0> d           0.028  -4.710  -2.088  0.00  0.00     0.076 H 
ATOM     14  H12 <0> d          -0.838  -2.184  -2.131  0.00  0.00     0.040 H 
ATOM     15  H13 <0> d           0.638  -2.487  -1.186  0.00  0.00     0.040 H 
ENDROOT
BRANCH   1  16
ATOM     16  C2  <0> d          -1.156  -0.694   0.009  0.00  0.00     0.221 C 
ATOM     17  N1  <0> d           0.002  -0.004   0.002  0.00  0.00    -0.365 N 
ATOM     18  H5  <0> d           0.849  -0.478  -0.009  0.00  0.00     0.161 HD
ATOM     19  O1  <0> d          -2.214  -0.102   0.023  0.00  0.00    -0.273 OA
BRANCH  17  20
ATOM     20  C1  <0> d          -0.018   1.461   0.010  0.00  0.00    -0.018 C 
ATOM     21  H2  <0> d           1.005   1.838   0.002  0.00  0.00     0.056 H 
ATOM     22  H3  <0> d          -0.545   1.822  -0.873  0.00  0.00     0.056 H 
ATOM     23  H4  <0> d          -0.528   1.812   0.907  0.00  0.00     0.056 H 
ENDBRANCH  17  20
ENDBRANCH   1  16
TORSDOF 2
