REMARK  4 active torsions:
REMARK  status: ('A' for Active; 'I' for Inactive)
REMARK    1  A    between atoms: C1_1  and  C2_2 
REMARK    2  A    between atoms: C2_2  and  C3_3 
REMARK    3  A    between atoms: C4_4  and  C9_12 
REMARK    4  A    between atoms: C6_8  and  C7_9 
ROOT
ATOM      1  C3  <0> d           0.707  -0.490  -1.238  0.00  0.00    -0.027 A 
ATOM      2  C4  <0> d           0.109  -0.761  -2.474  0.00  0.00    -0.016 A 
ATOM      3  C5  <0> d           1.109  -1.179  -3.326  0.00  0.00     0.120 A 
ATOM      4  N1  <0> d           2.290  -1.161  -2.619  0.00  0.00    -0.350 N 
ATOM      5  H1  <0> d           3.161  -1.407  -2.968  0.00  0.00     0.166 HD
ATOM      6  C6  <0> d           2.033  -0.737  -1.356  0.00  0.00     0.013 A 
ATOM      7  C8  <0> d           0.949  -1.561  -4.696  0.00  0.00     0.118 C 
ATOM      8  N2  <0> d           0.821  -1.865  -5.783  0.00  0.00    -0.190 NA
ENDROOT
BRANCH   2   9
ATOM      9  C9  <0> d          -1.353  -0.623  -2.810  0.00  0.00    -0.048 C 
ATOM     10  H10 <0> d          -1.548   0.384  -3.181  0.00  0.00     0.033 H 
ATOM     11  H11 <0> d          -1.621  -1.350  -3.576  0.00  0.00     0.033 H 
ATOM     12  H12 <0> d          -1.950  -0.801  -1.915  0.00  0.00     0.033 H 
ENDBRANCH   2   9
BRANCH   1  13
ATOM     13  C2  <0> d           0.002  -0.004   0.002  0.00  0.00    -0.042 C 
ATOM     14  H5  <0> d           0.529  -0.365   0.885  0.00  0.00     0.039 H 
ATOM     15  H6  <0> d          -1.020  -0.381   0.010  0.00  0.00     0.039 H 
BRANCH  13  16
ATOM     16  C1  <0> d          -0.019   1.526   0.010  0.00  0.00    -0.073 C 
ATOM     17  H2  <0> d           1.004   1.903   0.003  0.00  0.00     0.028 H 
ATOM     18  H3  <0> d          -0.546   1.887  -0.873  0.00  0.00     0.028 H 
ATOM     19  H4  <0> d          -0.529   1.877   0.907  0.00  0.00     0.028 H 
ENDBRANCH  13  16
ENDBRANCH   1  13
BRANCH   6  20
ATOM     20  C7  <0> d           3.057  -0.570  -0.262  0.00  0.00    -0.037 C 
ATOM     21  H7  <0> d           3.148  -1.502   0.295  0.00  0.00     0.035 H 
ATOM     22  H8  <0> d           4.020  -0.313  -0.702  0.00  0.00     0.035 H 
ATOM     23  H9  <0> d           2.741   0.226   0.412  0.00  0.00     0.035 H 
ENDBRANCH   6  20
TORSDOF 4
