REMARK  0 active torsions:
REMARK  status: ('A' for Active; 'I' for Inactive)
ROOT
ATOM      1  C1  <0> d           0.615   5.944   0.025  0.00  0.00    -0.045 A 
ATOM      2  C2  <0> d           1.318   4.756   0.014  0.00  0.00    -0.073 A 
ATOM      3  C3  <0> d           0.644   3.544   0.014  0.00  0.00    -0.044 A 
ATOM      4  C4  <0> d          -0.736   3.526   0.027  0.00  0.00    -0.042 A 
ATOM      5  C5  <0> d          -1.442   4.718   0.039  0.00  0.00    -0.039 A 
ATOM      6  C6  <0> d          -0.769   5.926   0.038  0.00  0.00     0.117 A 
ATOM      7  F1  <0> d          -1.461   7.086   0.050  0.00  0.00    -0.206 F 
ATOM      8  C7  <0> d          -1.230   2.100   0.018  0.00  0.00     0.015 A 
ATOM      9  C8  <0> d          -0.014   1.203   0.009  0.00  0.00     0.135 A 
ATOM     10  O1  <0> d           0.002  -0.004   0.002  0.00  0.00    -0.297 OA
ATOM     11  C9  <0> d           1.176   2.132   0.002  0.00  0.00     0.015 A 
ATOM     12  H1  <0> d           1.144   6.885   0.025  0.00  0.00     0.088 H 
ATOM     13  H2  <0> d           2.398   4.770   0.004  0.00  0.00     0.084 H 
ATOM     14  H3  <0> d          -2.522   4.703   0.049  0.00  0.00     0.089 H 
ATOM     15  H4  <0> d          -1.837   1.917   0.917  0.00  0.00     0.051 H 
ATOM     16  H5  <0> d          -1.842   1.929  -0.879  0.00  0.00     0.051 H 
ATOM     17  H6  <0> d           1.782   1.977  -0.902  0.00  0.00     0.051 H 
ATOM     18  H7  <0> d           1.799   1.968   0.894  0.00  0.00     0.051 H 
ENDROOT
TORSDOF 0
