REMARK  4 active torsions:
REMARK  status: ('A' for Active; 'I' for Inactive)
REMARK    1  A    between atoms: C1_1  and  C2_2 
REMARK    2  A    between atoms: C5_5  and  C7_8 
REMARK    3  A    between atoms: C7_8  and  C8_10 
REMARK    4  A    between atoms: C7_8  and  O1_11 
ROOT
ATOM      1  C2  <0> d           2.305  -0.038  -0.021  0.00  0.00     0.030 A 
ATOM      2  C3  <0> d           2.365   1.343  -0.013  0.00  0.00    -0.059 A 
ATOM      3  C4  <0> d           1.185   2.070   0.002  0.00  0.00    -0.071 A 
ATOM      4  C5  <0> d          -0.017   1.378   0.010  0.00  0.00    -0.013 A 
ATOM      5  C6  <0> d           0.002  -0.004   0.002  0.00  0.00     0.011 A 
ATOM      6  N1  <0> d           1.144  -0.663  -0.013  0.00  0.00    -0.265 NA
ATOM      7  H5  <0> d           3.319   1.849  -0.019  0.00  0.00     0.086 H 
ATOM      8  H6  <0> d           1.201   3.150   0.007  0.00  0.00     0.084 H 
ATOM      9  H7  <0> d          -0.929  -0.550   0.008  0.00  0.00     0.115 H 
ENDROOT
BRANCH   4  10
ATOM     10  C7  <0> d          -1.326   2.123   0.020  0.00  0.00     0.059 C 
ATOM     11  H1  <0> d          -1.184   3.114  -0.410  0.00  0.00     0.090 H 
BRANCH  10  12
ATOM     12  C8  <0> d          -1.825   2.258   1.460  0.00  0.00    -0.049 C 
ATOM     13  H8  <0> d          -1.090   2.807   2.049  0.00  0.00     0.031 H 
ATOM     14  H9  <0> d          -2.772   2.797   1.468  0.00  0.00     0.031 H 
ATOM     15  H10 <0> d          -1.968   1.266   1.890  0.00  0.00     0.031 H 
ENDBRANCH  10  12
BRANCH  10  16
ATOM     16  O1  <0> d          -2.290   1.403  -0.752  0.00  0.00    -0.391 OA
ATOM     17  H11 <0> d          -3.159   1.826  -0.790  0.00  0.00     0.210 HD
ENDBRANCH  10  16
ENDBRANCH   4  10
BRANCH   1  18
ATOM     18  C1  <0> d           3.582  -0.839  -0.037  0.00  0.00    -0.035 C 
ATOM     19  H2  <0> d           3.880  -1.026  -1.069  0.00  0.00     0.035 H 
ATOM     20  H3  <0> d           4.367  -0.281   0.472  0.00  0.00     0.035 H 
ATOM     21  H4  <0> d           3.422  -1.789   0.473  0.00  0.00     0.035 H 
ENDBRANCH   1  18
TORSDOF 4
