REMARK  2 active torsions:
REMARK  status: ('A' for Active; 'I' for Inactive)
REMARK    1  A    between atoms: C1_1  and  C2_2 
REMARK    2  A    between atoms: C5_5  and  O1_8 
ROOT
ATOM      1  C2  <0> d           3.693   2.672   0.063  0.00  0.00     0.030 A 
ATOM      2  C3  <0> d           3.110   2.415  -1.163  0.00  0.00    -0.057 A 
ATOM      3  C4  <0> d           1.852   1.835  -1.205  0.00  0.00    -0.048 A 
ATOM      4  C5  <0> d           1.223   1.532  -0.001  0.00  0.00     0.083 A 
ATOM      5  C6  <0> d           1.871   1.826   1.190  0.00  0.00     0.034 A 
ATOM      6  N1  <0> d           3.070   2.373   1.186  0.00  0.00    -0.263 NA
ATOM      7  H4  <0> d           3.628   2.662  -2.078  0.00  0.00     0.086 H 
ATOM      8  H5  <0> d           1.372   1.623  -2.149  0.00  0.00     0.087 H 
ATOM      9  H6  <0> d           1.389   1.600   2.130  0.00  0.00     0.119 H 
ENDROOT
BRANCH   1  10
ATOM     10  C1  <0> d           5.061   3.302   0.117  0.00  0.00    -0.035 C 
ATOM     11  H1  <0> d           4.961   4.388   0.140  0.00  0.00     0.035 H 
ATOM     12  H2  <0> d           5.580   2.967   1.016  0.00  0.00     0.035 H 
ATOM     13  H3  <0> d           5.632   3.008  -0.763  0.00  0.00     0.035 H 
ENDBRANCH   1  10
BRANCH   4  14
ATOM     14  O1  <0> d          -0.011   0.963   0.007  0.00  0.00    -0.359 OA
ATOM     15  H7  <0> d           0.002  -0.004   0.002  0.00  0.00     0.217 HD
ENDBRANCH   4  14
TORSDOF 2
