REMARK  5 active torsions:
REMARK  status: ('A' for Active; 'I' for Inactive)
REMARK    1  A    between atoms: C1_1  and  C2_2 
REMARK    2  A    between atoms: N1_4  and  C5_8 
REMARK    3  A    between atoms: C4_6  and  N3_7 
REMARK    4  A    between atoms: C5_8  and  C6_9 
REMARK    5  A    between atoms: C6_9  and  O1_10 
ROOT
ATOM      1  C2  <0> d           0.002  -0.004   0.002  0.00  0.00     0.002 A 
ATOM      2  C3  <0> d           0.008  -0.794  -1.096  0.00  0.00     0.008 A 
ATOM      3  N1  <0> d           0.027  -2.079  -0.681  0.00  0.00    -0.276 N 
ATOM      4  N2  <0> d           0.034  -2.083   0.720  0.00  0.00    -0.155 NA
ATOM      5  C4  <0> d           0.025  -0.837   1.133  0.00  0.00     0.148 A 
ATOM      6  H4  <0> d          -0.001  -0.458  -2.122  0.00  0.00     0.115 H 
ENDROOT
BRANCH   3   7
ATOM      7  C5  <0> d           0.039  -3.262  -1.545  0.00  0.00     0.036 C 
ATOM      8  H7  <0> d          -0.884  -3.824  -1.404  0.00  0.00     0.070 H 
ATOM      9  H8  <0> d           0.120  -2.950  -2.586  0.00  0.00     0.070 H 
BRANCH   7  10
ATOM     10  C6  <0> d           1.235  -4.145  -1.183  0.00  0.00     0.033 C 
ATOM     11  H9  <0> d           2.158  -3.583  -1.323  0.00  0.00     0.076 H 
ATOM     12  H10 <0> d           1.154  -4.457  -0.141  0.00  0.00     0.076 H 
BRANCH  10  13
ATOM     13  O1  <0> d           1.247  -5.299  -2.026  0.00  0.00    -0.399 OA
ATOM     14  H11 <0> d           1.979  -5.906  -1.851  0.00  0.00     0.209 HD
ENDBRANCH  10  13
ENDBRANCH   7  10
ENDBRANCH   3   7
BRANCH   1  15
ATOM     15  C1  <0> d          -0.018   1.503   0.010  0.00  0.00    -0.046 C 
ATOM     16  H1  <0> d           1.004   1.880   0.003  0.00  0.00     0.033 H 
ATOM     17  H2  <0> d          -0.545   1.864  -0.873  0.00  0.00     0.033 H 
ATOM     18  H3  <0> d          -0.529   1.854   0.907  0.00  0.00     0.033 H 
ENDBRANCH   1  15
BRANCH   5  19
ATOM     19  N3  <0> d           0.033  -0.412   2.466  0.00  0.00    -0.382 N 
ATOM     20  H5  <0> d           0.023   0.535   2.674  0.00  0.00     0.157 HD
ATOM     21  H6  <0> d           0.049  -1.066   3.183  0.00  0.00     0.157 HD
ENDBRANCH   5  19
TORSDOF 5
