REMARK  2 active torsions:
REMARK  status: ('A' for Active; 'I' for Inactive)
REMARK    1  A    between atoms: C2_2  and  C5_8 
REMARK    2  A    between atoms: C4_6  and  N3_7 
ROOT
ATOM      1  C1  <0> d           2.463   3.732  -0.001  0.00  0.00    -0.005 A 
ATOM      2  C2  <0> d           1.238   3.073   0.007  0.00  0.00     0.138 A 
ATOM      3  N1  <0> d           0.116   3.794   0.016  0.00  0.00    -0.235 NA
ATOM      4  C3  <0> d           0.158   5.109   0.027  0.00  0.00     0.089 A 
ATOM      5  N2  <0> d           1.297   5.772   0.020  0.00  0.00    -0.225 NA
ATOM      6  C4  <0> d           2.460   5.131   0.006  0.00  0.00     0.124 A 
ATOM      7  H1  <0> d           3.390   3.179  -0.013  0.00  0.00     0.093 H 
ATOM      8  H2  <0> d          -0.770   5.662   0.038  0.00  0.00     0.146 H 
ENDROOT
BRANCH   2   9
ATOM      9  C5  <0> d           1.180   1.590  -0.001  0.00  0.00     0.229 C 
ATOM     10  O1  <0> d           2.207   0.943  -0.014  0.00  0.00    -0.643 OA
ATOM     11  O2  <0> d          -0.011   0.963   0.007  0.00  0.00    -0.643 OA
ENDBRANCH   2   9
BRANCH   6  12
ATOM     12  N3  <0> d           3.652   5.836  -0.002  0.00  0.00    -0.384 N 
ATOM     13  H3  <0> d           4.497   5.360  -0.013  0.00  0.00     0.157 HD
ATOM     14  H4  <0> d           3.642   6.806   0.003  0.00  0.00     0.157 HD
ENDBRANCH   6  12
TORSDOF 2
