REMARK  4 active torsions:
REMARK  status: ('A' for Active; 'I' for Inactive)
REMARK    1  A    between atoms: C1_1  and  C2_2 
REMARK    2  A    between atoms: C5_6  and  C8_12 
REMARK    3  A    between atoms: C6_8  and  O1_11 
REMARK    4  A    between atoms: C8_12  and  C10_14 
ROOT
ATOM      1  C2  <0> d           0.763  -2.041   1.233  0.00  0.00    -0.055 C 
ATOM      2  H1  <0> d           1.273  -2.392   0.336  0.00  0.00     0.039 H 
ATOM      3  C3  <0> d          -0.673  -2.570   1.244  0.00  0.00    -0.061 C 
ATOM      4  C4  <0> d          -1.413  -2.063   0.004  0.00  0.00    -0.056 C 
ATOM      5  C5  <0> d          -1.433  -0.534   0.013  0.00  0.00    -0.008 C 
ATOM      6  H2  <0> d          -1.944  -0.182   0.910  0.00  0.00     0.050 H 
ATOM      7  C6  <0> d           0.002  -0.004   0.002  0.00  0.00     0.043 C 
ATOM      8  H3  <0> d           0.512  -0.356  -0.895  0.00  0.00     0.084 H 
ATOM      9  C7  <0> d           0.742  -0.511   1.242  0.00  0.00    -0.037 C 
ATOM     10  H7  <0> d          -0.658  -3.660   1.238  0.00  0.00     0.033 H 
ATOM     11  H8  <0> d          -1.183  -2.219   2.141  0.00  0.00     0.033 H 
ATOM     12  H9  <0> d          -0.902  -2.415  -0.892  0.00  0.00     0.034 H 
ATOM     13  H10 <0> d          -2.435  -2.441   0.012  0.00  0.00     0.034 H 
ATOM     14  H11 <0> d           1.765  -0.134   1.234  0.00  0.00     0.037 H 
ATOM     15  H12 <0> d           0.232  -0.159   2.138  0.00  0.00     0.037 H 
ENDROOT
BRANCH   5  16
ATOM     16  C8  <0> d          -2.162  -0.034  -1.208  0.00  0.00    -0.086 C 
ATOM     17  C9  <0> d          -3.236   0.704  -1.074  0.00  0.00    -0.119 C 
ATOM     18  H14 <0> d          -3.599   0.954  -0.088  0.00  0.00     0.067 H 
ATOM     19  H15 <0> d          -3.759   1.061  -1.949  0.00  0.00     0.067 H 
BRANCH  16  20
ATOM     20  C10 <0> d          -1.655  -0.384  -2.583  0.00  0.00    -0.055 C 
ATOM     21  H16 <0> d          -2.115  -1.315  -2.914  0.00  0.00     0.033 H 
ATOM     22  H17 <0> d          -1.912   0.415  -3.279  0.00  0.00     0.033 H 
ATOM     23  H18 <0> d          -0.573  -0.504  -2.552  0.00  0.00     0.033 H 
ENDBRANCH  16  20
ENDBRANCH   5  16
BRANCH   7  24
ATOM     24  O1  <0> d          -0.017   1.425   0.010  0.00  0.00    -0.395 OA
ATOM     25  H13 <0> d           0.861   1.830   0.004  0.00  0.00     0.210 HD
ENDBRANCH   7  24
BRANCH   1  26
ATOM     26  C1  <0> d           1.503  -2.548   2.473  0.00  0.00    -0.073 C 
ATOM     27  H4  <0> d           0.993  -2.196   3.369  0.00  0.00     0.028 H 
ATOM     28  H5  <0> d           1.518  -3.638   2.467  0.00  0.00     0.028 H 
ATOM     29  H6  <0> d           2.525  -2.170   2.465  0.00  0.00     0.028 H 
ENDBRANCH   1  26
TORSDOF 4
