REMARK  7 active torsions:
REMARK  status: ('A' for Active; 'I' for Inactive)
REMARK    1  A    between atoms: C1_1  and  C2_2 
REMARK    2  A    between atoms: C2_2  and  C3_3 
REMARK    3  A    between atoms: C2_2  and  C4_4 
REMARK    4  A    between atoms: C2_2  and  O3_8 
REMARK    5  A    between atoms: C4_4  and  O2_6 
REMARK    6  A    between atoms: O2_6  and  C5_7 
REMARK    7  A    between atoms: O3_8  and  C6_9 
ROOT
ATOM      1  C2  <0> d          -1.329   1.940   0.019  0.00  0.00     0.140 C 
ENDROOT
BRANCH   1   2
ATOM      2  C1  <0> d          -1.417   2.811   1.273  0.00  0.00    -0.039 C 
ATOM      3  H1  <0> d          -0.598   3.531   1.273  0.00  0.00     0.032 H 
ATOM      4  H2  <0> d          -2.368   3.344   1.281  0.00  0.00     0.032 H 
ATOM      5  H3  <0> d          -1.346   2.181   2.160  0.00  0.00     0.032 H 
ENDBRANCH   1   2
BRANCH   1   6
ATOM      6  C3  <0> d          -1.428   2.825  -1.225  0.00  0.00    -0.039 C 
ATOM      7  H4  <0> d          -1.366   2.204  -2.119  0.00  0.00     0.032 H 
ATOM      8  H5  <0> d          -2.380   3.357  -1.218  0.00  0.00     0.032 H 
ATOM      9  H6  <0> d          -0.610   3.545  -1.225  0.00  0.00     0.032 H 
ENDBRANCH   1   6
BRANCH   1  10
ATOM     10  C4  <0> d          -0.014   1.204   0.009  0.00  0.00     0.292 C 
ATOM     11  O1  <0> d           0.002  -0.004   0.002  0.00  0.00    -0.262 OA
BRANCH  10  12
ATOM     12  O2  <0> d           1.139   1.891   0.001  0.00  0.00    -0.324 OA
BRANCH  12  13
ATOM     13  C5  <0> d           2.367   1.117  -0.015  0.00  0.00     0.013 C 
ATOM     14  H7  <0> d           3.223   1.792  -0.019  0.00  0.00     0.067 H 
ATOM     15  H8  <0> d           2.409   0.484   0.872  0.00  0.00     0.067 H 
ATOM     16  H9  <0> d           2.392   0.493  -0.908  0.00  0.00     0.067 H 
ENDBRANCH  12  13
ENDBRANCH  10  12
ENDBRANCH   1  10
BRANCH   1  17
ATOM     17  O3  <0> d          -2.403   0.997   0.019  0.00  0.00    -0.376 OA
BRANCH  17  18
ATOM     18  C6  <0> d          -3.701   1.593   0.028  0.00  0.00     0.006 C 
ATOM     19  H10 <0> d          -4.461   0.811   0.028  0.00  0.00     0.066 H 
ATOM     20  H11 <0> d          -3.812   2.207   0.922  0.00  0.00     0.066 H 
ATOM     21  H12 <0> d          -3.821   2.217  -0.858  0.00  0.00     0.066 H 
ENDBRANCH  17  18
ENDBRANCH   1  17
TORSDOF 7
