REMARK  2 active torsions:
REMARK  status: ('A' for Active; 'I' for Inactive)
REMARK    1  A    between atoms: C4_4  and  N3_12 
REMARK    2  A    between atoms: C7_7  and  N2_11 
ROOT
ATOM      1  C1  <0> d           1.114   5.920   0.023  0.00  0.00    -0.065 A 
ATOM      2  C2  <0> d          -0.087   5.267   0.031  0.00  0.00    -0.067 A 
ATOM      3  C3  <0> d          -0.079   3.861   0.024  0.00  0.00     0.021 A 
ATOM      4  C4  <0> d          -1.280   3.122   0.031  0.00  0.00     0.038 A 
ATOM      5  C5  <0> d          -1.233   1.745   0.017  0.00  0.00    -0.055 A 
ATOM      6  C6  <0> d          -0.013   1.076   0.008  0.00  0.00    -0.053 A 
ATOM      7  C7  <0> d           1.176   1.771   0.000  0.00  0.00     0.055 A 
ATOM      8  C8  <0> d           1.164   3.182   0.008  0.00  0.00     0.095 A 
ATOM      9  N1  <0> d           2.303   3.879   0.000  0.00  0.00    -0.258 NA
ATOM     10  C9  <0> d           2.300   5.191   0.007  0.00  0.00     0.003 A 
ATOM     11  H1  <0> d           1.142   6.999   0.028  0.00  0.00     0.085 H 
ATOM     12  H2  <0> d          -1.017   5.816   0.044  0.00  0.00     0.085 H 
ATOM     13  H3  <0> d          -2.152   1.179   0.018  0.00  0.00     0.087 H 
ATOM     14  H4  <0> d           0.002  -0.004   0.002  0.00  0.00     0.087 H 
ATOM     15  H5  <0> d           3.242   5.719   0.001  0.00  0.00     0.114 H 
ENDROOT
BRANCH   4  16
ATOM     16  N3  <0> d          -2.511   3.783   0.046  0.00  0.00    -0.398 N 
ATOM     17  H8  <0> d          -2.541   4.752   0.052  0.00  0.00     0.156 HD
ATOM     18  H9  <0> d          -3.335   3.272   0.051  0.00  0.00     0.156 HD
ENDBRANCH   4  16
BRANCH   7  19
ATOM     19  N2  <0> d           2.393   1.080  -0.015  0.00  0.00    -0.397 N 
ATOM     20  H6  <0> d           2.400   0.110  -0.021  0.00  0.00     0.156 HD
ATOM     21  H7  <0> d           3.229   1.571  -0.021  0.00  0.00     0.156 HD
ENDBRANCH   7  19
TORSDOF 2
