REMARK  3 active torsions:
REMARK  status: ('A' for Active; 'I' for Inactive)
REMARK    1  A    between atoms: C4_4  and  C7_7 
REMARK    2  A    between atoms: C7_7  and  C8_9 
REMARK    3  A    between atoms: C7_7  and  O1_12 
ROOT
ATOM      1  C7  <0> d          -0.013   1.086   0.008  0.00  0.00     0.064 C 
ATOM      2  H1  <0> d           0.002  -0.004   0.002  0.00  0.00     0.091 H 
ENDROOT
BRANCH   1   3
ATOM      3  C4  <0> d          -0.742   1.585  -1.213  0.00  0.00    -0.029 A 
ATOM      4  C3  <0> d          -0.899   0.759  -2.310  0.00  0.00    -0.074 A 
ATOM      5  C2  <0> d          -1.568   1.216  -3.430  0.00  0.00    -0.082 A 
ATOM      6  H4  <0> d          -0.500  -0.245  -2.292  0.00  0.00     0.084 H 
ATOM      7  C1  <0> d          -2.079   2.501  -3.453  0.00  0.00    -0.083 A 
ATOM      8  H3  <0> d          -1.691   0.571  -4.287  0.00  0.00     0.083 H 
ATOM      9  C6  <0> d          -1.922   3.327  -2.355  0.00  0.00    -0.082 A 
ATOM     10  H2  <0> d          -2.601   2.859  -4.328  0.00  0.00     0.083 H 
ATOM     11  C5  <0> d          -1.257   2.868  -1.234  0.00  0.00    -0.074 A 
ATOM     12  H6  <0> d          -2.321   4.330  -2.373  0.00  0.00     0.083 H 
ATOM     13  H5  <0> d          -1.138   3.512  -0.375  0.00  0.00     0.084 H 
ENDBRANCH   1   3
BRANCH   1  14
ATOM     14  C8  <0> d           1.423   1.615  -0.003  0.00  0.00    -0.025 A 
ATOM     15  C10 <0> d           2.332   1.215   1.161  0.00  0.00    -0.059 A 
ATOM     16  C9  <0> d           2.548   0.603  -0.225  0.00  0.00    -0.059 A 
ATOM     17  H10 <0> d           3.061   1.949   1.505  0.00  0.00     0.033 H 
ATOM     18  H11 <0> d           1.908   0.575   1.934  0.00  0.00     0.033 H 
ATOM     19  H8  <0> d           2.265  -0.441  -0.364  0.00  0.00     0.033 H 
ATOM     20  H9  <0> d           3.418   0.934  -0.792  0.00  0.00     0.033 H 
ATOM     21  H7  <0> d           1.553   2.613  -0.423  0.00  0.00     0.044 H 
ENDBRANCH   1  14
BRANCH   1  22
ATOM     22  O1  <0> d          -0.682   1.547   1.184  0.00  0.00    -0.391 OA
ATOM     23  H12 <0> d          -0.732   2.510   1.256  0.00  0.00     0.210 HD
ENDBRANCH   1  22
TORSDOF 3
