REMARK  4 active torsions:
REMARK  status: ('A' for Active; 'I' for Inactive)
REMARK    1  A    between atoms: C1_1  and  O1_2 
REMARK    2  A    between atoms: O1_2  and  C2_3 
REMARK    3  A    between atoms: C2_3  and  C3_5 
REMARK    4  A    between atoms: C4_6  and  N3_10 
ROOT
ATOM      1  C3  <0> d          -2.595   1.087   0.020  0.00  0.00     0.208 A 
ATOM      2  C4  <0> d          -1.222   1.643   0.017  0.00  0.00     0.188 A 
ATOM      3  N1  <0> d          -1.439   2.938   0.031  0.00  0.00    -0.085 NA
ATOM      4  O3  <0> d          -2.629   3.148   0.032  0.00  0.00    -0.104 OA
ATOM      5  N2  <0> d          -3.341   2.171   0.030  0.00  0.00    -0.095 NA
ENDROOT
BRANCH   1   6
ATOM      6  C2  <0> d          -3.020  -0.330   0.014  0.00  0.00     0.318 C 
ATOM      7  O2  <0> d          -2.187  -1.214   0.005  0.00  0.00    -0.257 OA
BRANCH   6   8
ATOM      8  O1  <0> d          -4.331  -0.640   0.019  0.00  0.00    -0.321 OA
BRANCH   8   9
ATOM      9  C1  <0> d          -4.674  -2.051   0.012  0.00  0.00     0.013 C 
ATOM     10  H1  <0> d          -4.266  -2.521  -0.882  0.00  0.00     0.067 H 
ATOM     11  H2  <0> d          -4.257  -2.531   0.897  0.00  0.00     0.067 H 
ATOM     12  H3  <0> d          -5.759  -2.161   0.017  0.00  0.00     0.067 H 
ENDBRANCH   8   9
ENDBRANCH   6   8
ENDBRANCH   1   6
BRANCH   2  13
ATOM     13  N3  <0> d          -0.011   0.966   0.007  0.00  0.00    -0.380 N 
ATOM     14  H4  <0> d           0.002  -0.004   0.002  0.00  0.00     0.158 HD
ATOM     15  H5  <0> d           0.822   1.462   0.002  0.00  0.00     0.158 HD
ENDBRANCH   2  13
TORSDOF 4
