REMARK  5 active torsions:
REMARK  status: ('A' for Active; 'I' for Inactive)
REMARK    1  A    between atoms: C1_1  and  C2_2 
REMARK    2  A    between atoms: C6_6  and  C9_9 
REMARK    3  A    between atoms: C7_7  and  C8_8 
REMARK    4  A    between atoms: C9_9  and  C10_11 
REMARK    5  A    between atoms: C9_9  and  O1_12 
ROOT
ATOM      1  C2  <0> d           2.377   1.411  -0.015  0.00  0.00    -0.056 A 
ATOM      2  C3  <0> d           1.171   2.086   0.002  0.00  0.00    -0.077 A 
ATOM      3  C4  <0> d          -0.017   1.378   0.010  0.00  0.00    -0.082 A 
ATOM      4  C5  <0> d           0.002  -0.004   0.002  0.00  0.00    -0.074 A 
ATOM      5  C6  <0> d           1.208  -0.679  -0.013  0.00  0.00    -0.024 A 
ATOM      6  C7  <0> d           2.396   0.029  -0.021  0.00  0.00    -0.047 A 
ATOM      7  H5  <0> d           1.156   3.166   0.008  0.00  0.00     0.084 H 
ATOM      8  H6  <0> d          -0.959   1.906   0.017  0.00  0.00     0.083 H 
ATOM      9  H7  <0> d          -0.926  -0.557   0.008  0.00  0.00     0.084 H 
ENDROOT
BRANCH   5  10
ATOM     10  C9  <0> d           1.229  -2.186  -0.021  0.00  0.00     0.058 C 
ATOM     11  H1  <0> d           2.081  -2.540   0.559  0.00  0.00     0.090 H 
BRANCH  10  12
ATOM     12  C10 <0> d           1.347  -2.687  -1.461  0.00  0.00    -0.049 C 
ATOM     13  H11 <0> d           2.269  -2.309  -1.903  0.00  0.00     0.031 H 
ATOM     14  H12 <0> d           1.362  -3.777  -1.466  0.00  0.00     0.031 H 
ATOM     15  H13 <0> d           0.494  -2.333  -2.040  0.00  0.00     0.031 H 
ENDBRANCH  10  12
BRANCH  10  16
ATOM     16  O1  <0> d           0.020  -2.681   0.559  0.00  0.00    -0.391 OA
ATOM     17  H14 <0> d          -0.036  -3.646   0.587  0.00  0.00     0.210 HD
ENDBRANCH  10  16
ENDBRANCH   5  10
BRANCH   6  18
ATOM     18  C8  <0> d           3.711  -0.707  -0.037  0.00  0.00    -0.050 C 
ATOM     19  H8  <0> d           4.018  -0.879  -1.069  0.00  0.00     0.033 H 
ATOM     20  H9  <0> d           4.468  -0.110   0.472  0.00  0.00     0.033 H 
ATOM     21  H10 <0> d           3.599  -1.663   0.473  0.00  0.00     0.033 H 
ENDBRANCH   6  18
BRANCH   1  22
ATOM     22  C1  <0> d           3.672   2.182  -0.024  0.00  0.00    -0.051 C 
ATOM     23  H2  <0> d           3.974   2.372  -1.054  0.00  0.00     0.033 H 
ATOM     24  H3  <0> d           3.534   3.130   0.495  0.00  0.00     0.033 H 
ATOM     25  H4  <0> d           4.444   1.601   0.480  0.00  0.00     0.033 H 
ENDBRANCH   1  22
TORSDOF 5
