REMARK  0 active torsions:
REMARK  status: ('A' for Active; 'I' for Inactive)
ROOT
ATOM      1  C1  <0> d           1.303  -0.375  -0.012  0.00  0.00    -0.019 A 
ATOM      2  C2  <0> d           0.002  -0.004   0.002  0.00  0.00     0.046 A 
ATOM      3  O1  <0> d          -0.016   1.336   0.009  0.00  0.00    -0.225 OA
ATOM      4  N1  <0> d           1.100   1.802   0.001  0.00  0.00    -0.118 NA
ATOM      5  C3  <0> d           2.011   0.860  -0.013  0.00  0.00     0.166 A 
ATOM      6  C4  <0> d           3.432   1.037  -0.026  0.00  0.00     0.122 C 
ATOM      7  N2  <0> d           4.559   1.178  -0.037  0.00  0.00    -0.190 NA
ATOM      8  H1  <0> d           1.709  -1.376  -0.022  0.00  0.00     0.091 H 
ATOM      9  H2  <0> d          -0.856  -0.660   0.006  0.00  0.00     0.126 H 
ENDROOT
TORSDOF 0
