REMARK  0 active torsions:
REMARK  status: ('A' for Active; 'I' for Inactive)
ROOT
ATOM      1  C1  <0> d           1.268   3.647  -1.569  0.00  0.00    -0.043 C 
ATOM      2  C2  <0> d          -0.245   3.501  -1.734  0.00  0.00    -0.051 C 
ATOM      3  C3  <0> d          -0.626   2.023  -1.591  0.00  0.00     0.029 C 
ATOM      4  S1  <0> d          -0.017   1.417   0.010  0.00  0.00     0.152 S 
ATOM      5  O1  <0> d           0.002  -0.004   0.002  0.00  0.00    -0.229 OA
ATOM      6  O2  <0> d           1.456   1.806  -0.002  0.00  0.00    -0.296 OA
ATOM      7  C4  <0> d           1.686   3.204  -0.168  0.00  0.00     0.036 C 
ATOM      8  H1  <0> d           1.550   4.689  -1.718  0.00  0.00     0.036 H 
ATOM      9  H2  <0> d           1.773   3.026  -2.309  0.00  0.00     0.036 H 
ATOM     10  H3  <0> d          -0.753   4.084  -0.965  0.00  0.00     0.034 H 
ATOM     11  H4  <0> d          -0.541   3.862  -2.719  0.00  0.00     0.034 H 
ATOM     12  H5  <0> d          -0.169   1.449  -2.397  0.00  0.00     0.056 H 
ATOM     13  H6  <0> d          -1.710   1.919  -1.633  0.00  0.00     0.056 H 
ATOM     14  H7  <0> d           1.106   3.756   0.572  0.00  0.00     0.076 H 
ATOM     15  H8  <0> d           2.745   3.416  -0.023  0.00  0.00     0.076 H 
ENDROOT
TORSDOF 0
