REMARK  3 active torsions:
REMARK  status: ('A' for Active; 'I' for Inactive)
REMARK    1  A    between atoms: C1_1  and  C2_2 
REMARK    2  A    between atoms: C2_2  and  C3_4 
REMARK    3  A    between atoms: C2_2  and  O1_10 
ROOT
ATOM      1  C3  <0> d          -1.412  -0.526   0.013  0.00  0.00     0.037 A 
ATOM      2  C4  <0> d          -2.178  -0.710   1.107  0.00  0.00    -0.057 A 
ATOM      3  C5  <0> d          -3.422  -1.209   0.672  0.00  0.00    -0.066 A 
ATOM      4  C6  <0> d          -3.368  -1.310  -0.672  0.00  0.00    -0.023 A 
ATOM      5  N1  <0> d          -2.139  -0.887  -1.083  0.00  0.00    -0.367 N 
ATOM      6  H2  <0> d          -1.831  -0.851  -2.002  0.00  0.00     0.165 HD
ATOM      7  H6  <0> d          -1.891  -0.512   2.129  0.00  0.00     0.086 H 
ATOM      8  H7  <0> d          -4.263  -1.464   1.299  0.00  0.00     0.085 H 
ATOM      9  H8  <0> d          -4.163  -1.662  -1.313  0.00  0.00     0.111 H 
ENDROOT
BRANCH   1  10
ATOM     10  C2  <0> d           0.002  -0.004   0.002  0.00  0.00     0.072 C 
ATOM     11  H1  <0> d           0.512  -0.356  -0.895  0.00  0.00     0.092 H 
BRANCH  10  12
ATOM     12  C1  <0> d          -0.019   1.526   0.010  0.00  0.00    -0.047 C 
ATOM     13  H3  <0> d           1.004   1.903   0.003  0.00  0.00     0.031 H 
ATOM     14  H4  <0> d          -0.546   1.887  -0.873  0.00  0.00     0.031 H 
ATOM     15  H5  <0> d          -0.529   1.877   0.907  0.00  0.00     0.031 H 
ENDBRANCH  10  12
BRANCH  10  16
ATOM     16  O1  <0> d           0.693  -0.477   1.160  0.00  0.00    -0.390 OA
ATOM     17  H9  <0> d           1.611  -0.180   1.219  0.00  0.00     0.210 HD
ENDBRANCH  10  16
ENDBRANCH   1  10
TORSDOF 3
