REMARK  2 active torsions:
REMARK  status: ('A' for Active; 'I' for Inactive)
REMARK    1  A    between atoms: C1_1  and  C2_2 
REMARK    2  A    between atoms: C5_5  and  N1_8 
ROOT
ATOM      1  C2  <0> d           0.002  -0.004   0.002  0.00  0.00    -0.062 A 
ATOM      2  C3  <0> d           0.006  -0.688  -1.200  0.00  0.00    -0.075 A 
ATOM      3  C4  <0> d           0.024  -2.068  -1.211  0.00  0.00    -0.055 A 
ATOM      4  C5  <0> d           0.039  -2.771  -0.013  0.00  0.00     0.058 A 
ATOM      5  C6  <0> d           0.036  -2.082   1.192  0.00  0.00    -0.055 A 
ATOM      6  C7  <0> d           0.023  -0.700   1.196  0.00  0.00    -0.075 A 
ATOM      7  H4  <0> d          -0.006  -0.141  -2.131  0.00  0.00     0.084 H 
ATOM      8  H5  <0> d           0.026  -2.602  -2.150  0.00  0.00     0.087 H 
ATOM      9  H6  <0> d           0.047  -2.625   2.125  0.00  0.00     0.087 H 
ATOM     10  H7  <0> d           0.025  -0.164   2.134  0.00  0.00     0.084 H 
ENDROOT
BRANCH   4  11
ATOM     11  N1  <0> d           0.057  -4.172  -0.021  0.00  0.00    -0.245 N 
ATOM     12  N2  <0> d           0.061  -4.990  -1.158  0.00  0.00    -0.180 NA
ATOM     13  C10 <0> d           0.083  -6.238  -0.764  0.00  0.00     0.023 A 
ATOM     14  C9  <0> d           0.084  -6.256   0.635  0.00  0.00    -0.048 A 
ATOM     15  H10 <0> d           0.094  -7.105  -1.408  0.00  0.00     0.117 H 
ATOM     16  C8  <0> d           0.068  -4.974   1.068  0.00  0.00     0.006 A 
ATOM     17  H9  <0> d           0.095  -7.137   1.259  0.00  0.00     0.087 H 
ATOM     18  H8  <0> d           0.064  -4.649   2.098  0.00  0.00     0.114 H 
ENDBRANCH   4  11
BRANCH   1  19
ATOM     19  C1  <0> d          -0.018   1.503   0.010  0.00  0.00    -0.051 C 
ATOM     20  H1  <0> d           1.004   1.880   0.003  0.00  0.00     0.033 H 
ATOM     21  H2  <0> d          -0.545   1.864  -0.873  0.00  0.00     0.033 H 
ATOM     22  H3  <0> d          -0.529   1.854   0.907  0.00  0.00     0.033 H 
ENDBRANCH   1  19
TORSDOF 2
