REMARK  3 active torsions:
REMARK  status: ('A' for Active; 'I' for Inactive)
REMARK    1  A    between atoms: C1_1  and  C2_2 
REMARK    2  A    between atoms: C2_2  and  C3_3 
REMARK    3  A    between atoms: C3_3  and  C6_8 
ROOT
ATOM      1  C3  <0> d          -2.090   1.877  -0.641  0.00  0.00     0.160 C 
ATOM      2  O1  <0> d          -0.766   1.591  -1.112  0.00  0.00    -0.353 OA
ATOM      3  C4  <0> d          -0.013   1.086   0.008  0.00  0.00     0.043 C 
ATOM      4  C5  <0> d          -0.799   1.616   1.233  0.00  0.00     0.043 C 
ATOM      5  O2  <0> d          -2.168   1.538   0.753  0.00  0.00    -0.353 OA
ATOM      6  H6  <0> d           0.002  -0.004   0.002  0.00  0.00     0.077 H 
ATOM      7  H7  <0> d           1.002   1.484   0.001  0.00  0.00     0.077 H 
ATOM      8  H8  <0> d          -0.649   0.974   2.101  0.00  0.00     0.077 H 
ATOM      9  H9  <0> d          -0.522   2.646   1.459  0.00  0.00     0.077 H 
ENDROOT
BRANCH   1  10
ATOM     10  C2  <0> d          -3.106   1.047  -1.429  0.00  0.00    -0.017 C 
ATOM     11  H4  <0> d          -4.110   1.256  -1.061  0.00  0.00     0.040 H 
ATOM     12  H5  <0> d          -3.045   1.306  -2.486  0.00  0.00     0.040 H 
BRANCH  10  13
ATOM     13  C1  <0> d          -2.797  -0.441  -1.250  0.00  0.00    -0.072 C 
ATOM     14  H1  <0> d          -2.858  -0.700  -0.193  0.00  0.00     0.027 H 
ATOM     15  H2  <0> d          -3.521  -1.032  -1.812  0.00  0.00     0.027 H 
ATOM     16  H3  <0> d          -1.793  -0.651  -1.619  0.00  0.00     0.027 H 
ENDBRANCH  10  13
ENDBRANCH   1  10
BRANCH   1  17
ATOM     17  C6  <0> d          -2.391   3.366  -0.824  0.00  0.00    -0.025 C 
ATOM     18  H10 <0> d          -2.332   3.621  -1.882  0.00  0.00     0.035 H 
ATOM     19  H11 <0> d          -3.393   3.582  -0.454  0.00  0.00     0.035 H 
ATOM     20  H12 <0> d          -1.663   3.954  -0.266  0.00  0.00     0.035 H 
ENDBRANCH   1  17
TORSDOF 3
