REMARK  0 active torsions:
REMARK  status: ('A' for Active; 'I' for Inactive)
ROOT
ATOM      1  C1  <0> d          -0.019   1.535   0.011  0.00  0.00    -0.063 C 
ATOM      2  C2  <0> d           1.520   1.483  -0.004  0.00  0.00    -0.051 C 
ATOM      3  C3  <0> d           1.393   0.097   0.630  0.00  0.00     0.021 C 
ATOM      4  C4  <0> d           0.002  -0.004   0.002  0.00  0.00    -0.051 C 
ATOM      5  C5  <0> d           1.598  -0.105   2.131  0.00  0.00    -0.045 C 
ATOM      6  C6  <0> d           2.071  -1.520   1.753  0.00  0.00    -0.008 C 
ATOM      7  C7  <0> d           2.433  -0.966   0.389  0.00  0.00     0.135 C 
ATOM      8  O1  <0> d           3.208  -1.249  -0.493  0.00  0.00    -0.297 OA
ATOM      9  H1  <0> d          -0.432   1.961   0.925  0.00  0.00     0.033 H 
ATOM     10  H2  <0> d          -0.449   1.970  -0.891  0.00  0.00     0.033 H 
ATOM     11  H3  <0> d           1.947   1.468  -1.007  0.00  0.00     0.034 H 
ATOM     12  H4  <0> d           1.989   2.221   0.647  0.00  0.00     0.034 H 
ATOM     13  H5  <0> d          -0.742  -0.455   0.658  0.00  0.00     0.034 H 
ATOM     14  H6  <0> d           0.004  -0.436  -0.999  0.00  0.00     0.034 H 
ATOM     15  H7  <0> d           2.380   0.522   2.558  0.00  0.00     0.035 H 
ATOM     16  H8  <0> d           0.673  -0.089   2.708  0.00  0.00     0.035 H 
ATOM     17  H9  <0> d           2.933  -1.859   2.328  0.00  0.00     0.044 H 
ATOM     18  H10 <0> d           1.266  -2.254   1.724  0.00  0.00     0.044 H 
ENDROOT
TORSDOF 0
