REMARK  0 active torsions:
REMARK  status: ('A' for Active; 'I' for Inactive)
ROOT
ATOM      1  C1  <0> d          -0.784   1.608   1.242  0.00  0.00    -0.061 C 
ATOM      2  C2  <0> d          -0.013   1.086   0.008  0.00  0.00    -0.055 C 
ATOM      3  C3  <0> d          -0.814   1.626  -1.216  0.00  0.00     0.004 C 
ATOM      4  H1  <0> d          -0.568   1.102  -2.032  0.00  0.00     0.051 H 
ATOM      5  C4  <0> d          -2.277   1.577  -0.651  0.00  0.00    -0.052 C 
ATOM      6  C5  <0> d          -1.975   2.420   0.639  0.00  0.00    -0.047 C 
ATOM      7  H2  <0> d          -2.820   2.614   1.300  0.00  0.00     0.040 H 
ATOM      8  C6  <0> d          -1.302   3.673   0.000  0.00  0.00    -0.006 C 
ATOM      9  C7  <0> d          -0.552   3.138  -1.212  0.00  0.00     0.131 C 
ATOM     10  O1  <0> d           0.107   3.770  -2.002  0.00  0.00    -0.298 OA
ATOM     11  H3  <0> d          -1.154   0.775   1.840  0.00  0.00     0.033 H 
ATOM     12  H4  <0> d          -0.146   2.255   1.844  0.00  0.00     0.033 H 
ATOM     13  H5  <0> d           0.002  -0.004   0.002  0.00  0.00     0.034 H 
ATOM     14  H6  <0> d           1.004   1.479   0.000  0.00  0.00     0.034 H 
ATOM     15  H7  <0> d          -2.987   2.077  -1.309  0.00  0.00     0.034 H 
ATOM     16  H8  <0> d          -2.591   0.561  -0.413  0.00  0.00     0.034 H 
ATOM     17  H9  <0> d          -2.005   4.336  -0.254  0.00  0.00     0.044 H 
ATOM     18  H10 <0> d          -0.608   4.131   0.705  0.00  0.00     0.044 H 
ENDROOT
TORSDOF 0
