REMARK  4 active torsions:
REMARK  status: ('A' for Active; 'I' for Inactive)
REMARK    1  A    between atoms: C1_1  and  C2_2 
REMARK    2  A    between atoms: C3_3  and  C6_8 
REMARK    3  A    between atoms: N1_5  and  C5_7 
REMARK    4  A    between atoms: C6_8  and  C7_10 
ROOT
ATOM      1  C2  <0> d          -0.750   1.597   3.821  0.00  0.00     0.066 A 
ATOM      2  C3  <0> d          -0.200   1.217   2.573  0.00  0.00     0.052 A 
ATOM      3  C4  <0> d           0.917   0.443   2.840  0.00  0.00     0.013 A 
ATOM      4  N1  <0> d           1.042   0.366   4.173  0.00  0.00    -0.284 N 
ATOM      5  N2  <0> d          -0.004   1.086   4.761  0.00  0.00    -0.177 NA
ATOM      6  H4  <0> d           1.569  -0.013   2.110  0.00  0.00     0.115 H 
ENDROOT
BRANCH   2   7
ATOM      7  C6  <0> d          -0.718   1.572   1.248  0.00  0.00     0.159 C 
ATOM      8  O1  <0> d          -1.715   2.256   1.150  0.00  0.00    -0.293 OA
BRANCH   7   9
ATOM      9  C7  <0> d          -0.013   1.086   0.008  0.00  0.00    -0.016 C 
ATOM     10  H8  <0> d           0.001   0.086   0.003  0.00  0.00     0.038 H 
ATOM     11  H9  <0> d           1.010   1.463   0.000  0.00  0.00     0.038 H 
ATOM     12  H10 <0> d          -0.540   1.447  -0.875  0.00  0.00     0.038 H 
ENDBRANCH   7   9
ENDBRANCH   2   7
BRANCH   1  13
ATOM     13  C1  <0> d          -1.980   2.441   4.027  0.00  0.00    -0.033 C 
ATOM     14  H1  <0> d          -2.859   1.798   4.078  0.00  0.00     0.035 H 
ATOM     15  H2  <0> d          -1.886   3.001   4.957  0.00  0.00     0.035 H 
ATOM     16  H3  <0> d          -2.087   3.136   3.194  0.00  0.00     0.035 H 
ENDBRANCH   1  13
BRANCH   4  17
ATOM     17  C5  <0> d           2.094  -0.355   4.894  0.00  0.00     0.002 C 
ATOM     18  H5  <0> d           1.774  -1.381   5.074  0.00  0.00     0.059 H 
ATOM     19  H6  <0> d           3.006  -0.358   4.297  0.00  0.00     0.059 H 
ATOM     20  H7  <0> d           2.285   0.139   5.847  0.00  0.00     0.059 H 
ENDBRANCH   4  17
TORSDOF 4
