REMARK  2 active torsions:
REMARK  status: ('A' for Active; 'I' for Inactive)
REMARK    1  A    between atoms: C1_1  and  O1_2 
REMARK    2  A    between atoms: O1_2  and  C2_3 
ROOT
ATOM      1  C2  <0> d           0.604  -0.606  -1.053  0.00  0.00     0.229 A 
ATOM      2  N1  <0> d           1.194  -0.058  -2.096  0.00  0.00    -0.117 NA
ATOM      3  N2  <0> d           1.717  -0.756  -3.011  0.00  0.00    -0.152 NA
ATOM      4  C3  <0> d           1.672  -2.070  -2.920  0.00  0.00     0.065 A 
ATOM      5  S1  <0> d           0.800  -2.250  -1.370  0.00  0.00    -0.034 SA
ATOM      6  H4  <0> d           2.056  -2.824  -3.591  0.00  0.00     0.129 H 
ENDROOT
BRANCH   1   7
ATOM      7  O1  <0> d           0.002  -0.004   0.002  0.00  0.00    -0.333 OA
BRANCH   7   8
ATOM      8  C1  <0> d          -0.017   1.425   0.010  0.00  0.00     0.012 C 
ATOM      9  H1  <0> d           1.005   1.802   0.002  0.00  0.00     0.067 H 
ATOM     10  H2  <0> d          -0.544   1.786  -0.873  0.00  0.00     0.067 H 
ATOM     11  H3  <0> d          -0.527   1.776   0.907  0.00  0.00     0.067 H 
ENDBRANCH   7   8
ENDBRANCH   1   7
TORSDOF 2
