REMARK  3 active torsions:
REMARK  status: ('A' for Active; 'I' for Inactive)
REMARK    1  A    between atoms: C3_3  and  N1_10 
REMARK    2  A    between atoms: C4_4  and  O2_9 
REMARK    3  A    between atoms: C6_6  and  C7_7 
ROOT
ATOM      1  C1  <0> d           1.239  -2.058  -0.021  0.00  0.00    -0.064 A 
ATOM      2  C2  <0> d           1.216  -0.681  -0.013  0.00  0.00    -0.054 A 
ATOM      3  C3  <0> d           0.002  -0.004   0.002  0.00  0.00     0.059 A 
ATOM      4  C4  <0> d          -1.198  -0.718   0.015  0.00  0.00     0.092 A 
ATOM      5  C5  <0> d          -1.181  -2.097   0.002  0.00  0.00    -0.032 A 
ATOM      6  C6  <0> d           0.041  -2.778  -0.013  0.00  0.00     0.043 A 
ATOM      7  H1  <0> d           2.184  -2.582  -0.032  0.00  0.00     0.085 H 
ATOM      8  H2  <0> d           2.143  -0.127  -0.019  0.00  0.00     0.087 H 
ATOM      9  H3  <0> d          -2.109  -2.650   0.008  0.00  0.00     0.089 H 
ENDROOT
BRANCH   3  10
ATOM     10  N1  <0> d          -0.017   1.388   0.010  0.00  0.00    -0.397 N 
ATOM     11  H5  <0> d           0.817   1.885   0.004  0.00  0.00     0.156 HD
ATOM     12  H6  <0> d          -0.863   1.862   0.016  0.00  0.00     0.156 HD
ENDBRANCH   3  10
BRANCH   4  13
ATOM     13  O2  <0> d          -2.385  -0.052   0.036  0.00  0.00    -0.358 OA
ATOM     14  H4  <0> d          -2.741   0.145  -0.841  0.00  0.00     0.217 HD
ENDBRANCH   4  13
BRANCH   6  15
ATOM     15  C7  <0> d           0.065  -4.252  -0.022  0.00  0.00     0.209 C 
ATOM     16  O1  <0> d          -0.977  -4.876  -0.015  0.00  0.00    -0.644 OA
ATOM     17  O3  <0> d           1.243  -4.907  -0.037  0.00  0.00    -0.644 OA
ENDBRANCH   6  15
TORSDOF 3
