REMARK  0 active torsions:
REMARK  status: ('A' for Active; 'I' for Inactive)
ROOT
ATOM      1  C1  <0> d           1.187   1.769   0.000  0.00  0.00    -0.065 A 
ATOM      2  C2  <0> d           1.171   3.152   0.007  0.00  0.00    -0.063 A 
ATOM      3  C3  <0> d          -0.068   3.795   0.022  0.00  0.00     0.077 A 
ATOM      4  C4  <0> d          -0.487   5.202   0.034  0.00  0.00     0.240 A 
ATOM      5  N1  <0> d          -1.790   5.216   0.046  0.00  0.00    -0.097 NA
ATOM      6  O1  <0> d          -2.279   3.890   0.044  0.00  0.00    -0.190 OA
ATOM      7  C5  <0> d          -1.244   3.026   0.029  0.00  0.00     0.209 A 
ATOM      8  N2  <0> d          -1.170   1.704   0.017  0.00  0.00    -0.234 NA
ATOM      9  C6  <0> d          -0.013   1.076   0.008  0.00  0.00     0.005 A 
ATOM     10  O2  <0> d           0.329   6.285   0.032  0.00  0.00    -0.167 OA
ATOM     11  H1  <0> d           2.125   1.235  -0.012  0.00  0.00     0.085 H 
ATOM     12  H2  <0> d           2.091   3.718   0.002  0.00  0.00     0.085 H 
ATOM     13  H3  <0> d           0.002  -0.004   0.002  0.00  0.00     0.114 H 
ENDROOT
TORSDOF 0
