REMARK  8 active torsions:
REMARK  status: ('A' for Active; 'I' for Inactive)
REMARK    1  A    between atoms: C1_1  and  C2_2 
REMARK    2  A    between atoms: C2_2  and  C3_3 
REMARK    3  A    between atoms: C3_3  and  C4_4 
REMARK    4  A    between atoms: C4_4  and  C5_5 
REMARK    5  A    between atoms: C5_5  and  C6_6 
REMARK    6  A    between atoms: C6_6  and  C7_7 
REMARK    7  A    between atoms: C7_7  and  C8_9 
REMARK    8  A    between atoms: C7_7  and  O2_11 
ROOT
ATOM      1  C4  <0> d           0.025   5.675   2.596  0.00  0.00    -0.065 C 
ATOM      2  H9  <0> d          -0.980   5.278   2.736  0.00  0.00     0.033 H 
ATOM      3  H10 <0> d           0.660   5.358   3.423  0.00  0.00     0.033 H 
ENDROOT
BRANCH   1   4
ATOM      4  C3  <0> d          -0.031   7.203   2.553  0.00  0.00    -0.065 C 
ATOM      5  H7  <0> d           0.975   7.600   2.413  0.00  0.00     0.033 H 
ATOM      6  H8  <0> d          -0.665   7.521   1.725  0.00  0.00     0.033 H 
BRANCH   4   7
ATOM      7  C2  <0> d          -0.608   7.730   3.869  0.00  0.00    -0.069 C 
ATOM      8  H5  <0> d          -1.613   7.333   4.009  0.00  0.00     0.032 H 
ATOM      9  H6  <0> d           0.027   7.412   4.696  0.00  0.00     0.032 H 
BRANCH   7  10
ATOM     10  C1  <0> d          -0.664   9.258   3.826  0.00  0.00    -0.077 C 
ATOM     11  H2  <0> d          -1.075   9.633   4.763  0.00  0.00     0.027 H 
ATOM     12  H3  <0> d           0.342   9.655   3.686  0.00  0.00     0.027 H 
ATOM     13  H4  <0> d          -1.298   9.575   2.998  0.00  0.00     0.027 H 
ENDBRANCH   7  10
ENDBRANCH   4   7
ENDBRANCH   1   4
BRANCH   1  14
ATOM     14  C5  <0> d           0.602   5.149   1.280  0.00  0.00    -0.062 C 
ATOM     15  H11 <0> d           1.608   5.545   1.140  0.00  0.00     0.033 H 
ATOM     16  H12 <0> d          -0.032   5.466   0.452  0.00  0.00     0.033 H 
BRANCH  14  17
ATOM     17  C6  <0> d           0.658   3.620   1.323  0.00  0.00    -0.032 C 
ATOM     18  H13 <0> d          -0.347   3.224   1.463  0.00  0.00     0.037 H 
ATOM     19  H14 <0> d           1.292   3.303   2.150  0.00  0.00     0.037 H 
BRANCH  17  20
ATOM     20  C7  <0> d           1.235   3.094   0.007  0.00  0.00     0.119 C 
ATOM     21  H1  <0> d           0.652   3.485  -0.827  0.00  0.00     0.100 H 
BRANCH  20  22
ATOM     22  C8  <0> d           1.177   1.588  -0.001  0.00  0.00     0.203 C 
ATOM     23  O1  <0> d           2.199   0.944  -0.014  0.00  0.00    -0.646 OA
ATOM     24  O3  <0> d          -0.011   0.963   0.007  0.00  0.00    -0.646 OA
ENDBRANCH  20  22
BRANCH  20  25
ATOM     25  O2  <0> d           2.593   3.519  -0.121  0.00  0.00    -0.385 OA
ATOM     26  H15 <0> d           3.171   3.207   0.589  0.00  0.00     0.210 HD
ENDBRANCH  20  25
ENDBRANCH  17  20
ENDBRANCH  14  17
ENDBRANCH   1  14
TORSDOF 8
