REMARK  0 active torsions:
REMARK  status: ('A' for Active; 'I' for Inactive)
ROOT
ATOM      1  C1  <0> d           1.205   2.091   0.002  0.00  0.00    -0.031 A 
ATOM      2  C2  <0> d           2.371   1.406  -0.013  0.00  0.00    -0.017 A 
ATOM      3  N1  <0> d           2.392   0.049  -0.021  0.00  0.00    -0.332 N 
ATOM      4  H1  <0> d           3.353  -0.486  -0.033  0.00  0.00     0.168 HD
ATOM      5  C3  <0> d           1.253  -0.668  -0.013  0.00  0.00     0.269 A 
ATOM      6  O1  <0> d           1.297  -1.886  -0.021  0.00  0.00    -0.266 OA
ATOM      7  C4  <0> d           0.002  -0.004   0.002  0.00  0.00     0.148 A 
ATOM      8  C5  <0> d          -0.017   1.398   0.010  0.00  0.00     0.134 A 
ATOM      9  O2  <0> d          -1.190   2.070   0.019  0.00  0.00    -0.190 OA
ATOM     10  C6  <0> d          -1.220  -0.750   0.010  0.00  0.00     0.108 C 
ATOM     11  N2  <0> d          -2.189  -1.343   0.017  0.00  0.00    -0.191 NA
ATOM     12  H2  <0> d           1.213   3.171   0.007  0.00  0.00     0.090 H 
ATOM     13  H3  <0> d           3.304   1.950  -0.019  0.00  0.00     0.111 H 
ENDROOT
TORSDOF 0
