REMARK  1 active torsions:
REMARK  status: ('A' for Active; 'I' for Inactive)
REMARK    1  A    between atoms: C2_2  and  C3_3 
ROOT
ATOM      1  C1  <0> d           0.018  -1.178  -0.004  0.00  0.00    -0.149 C 
ATOM      2  C2  <0> d           0.002  -0.004   0.002  0.00  0.00    -0.078 C 
ATOM      3  H1  <0> d           0.032  -2.228  -0.010  0.00  0.00     0.166 H 
ENDROOT
BRANCH   2   4
ATOM      4  C3  <0> d          -0.017   1.428   0.010  0.00  0.00     0.017 A 
ATOM      5  C8  <0> d           1.184   2.144   0.002  0.00  0.00    -0.056 A 
ATOM      6  C7  <0> d           1.157   3.516   0.004  0.00  0.00    -0.016 A 
ATOM      7  H4  <0> d           2.128   1.620  -0.009  0.00  0.00     0.086 H 
ATOM      8  C6  <0> d          -0.065   4.198   0.025  0.00  0.00     0.048 A 
ATOM      9  C9  <0> d           2.229   4.575  -0.006  0.00  0.00     0.054 A 
ATOM     10  C5  <0> d          -1.262   3.476   0.039  0.00  0.00    -0.065 A 
ATOM     11  C10 <0> d           0.231   5.641   0.028  0.00  0.00     0.294 A 
ATOM     12  C4  <0> d          -1.236   2.111   0.031  0.00  0.00    -0.064 A 
ATOM     13  H3  <0> d          -2.207   3.998   0.055  0.00  0.00     0.085 H 
ATOM     14  H2  <0> d          -2.163   1.556   0.041  0.00  0.00     0.085 H 
ATOM     15  O1  <0> d           1.560   5.839   0.010  0.00  0.00    -0.313 OA
ATOM     16  O2  <0> d          -0.604   6.524   0.044  0.00  0.00    -0.259 OA
ATOM     17  H5  <0> d           2.860   4.476   0.877  0.00  0.00     0.082 H 
ATOM     18  H6  <0> d           2.834   4.485  -0.909  0.00  0.00     0.082 H 
ENDBRANCH   2   4
TORSDOF 1
