REMARK  2 active torsions:
REMARK  status: ('A' for Active; 'I' for Inactive)
REMARK    1  A    between atoms: C2_2  and  C5_8 
REMARK    2  A    between atoms: C3_5  and  C4_6 
ROOT
ATOM      1  C1  <0> d          -1.167   2.318   0.019  0.00  0.00    -0.015 A 
ATOM      2  C2  <0> d          -0.655   3.570   0.026  0.00  0.00     0.085 A 
ATOM      3  O1  <0> d           0.679   3.440   0.013  0.00  0.00    -0.217 OA
ATOM      4  N1  <0> d           1.018   2.280   0.005  0.00  0.00    -0.121 NA
ATOM      5  C3  <0> d          -0.018   1.478   0.010  0.00  0.00     0.163 A 
ATOM      6  H1  <0> d          -2.206   2.024   0.022  0.00  0.00     0.091 H 
ENDROOT
BRANCH   2   7
ATOM      7  C5  <0> d          -1.433   4.861   0.039  0.00  0.00    -0.005 A 
ATOM      8  C7  <0> d          -1.205   5.811   1.216  0.00  0.00    -0.055 A 
ATOM      9  C6  <0> d          -0.651   6.159  -0.168  0.00  0.00    -0.055 A 
ATOM     10  H5  <0> d          -2.061   6.384   1.574  0.00  0.00     0.034 H 
ATOM     11  H6  <0> d          -0.492   5.503   1.981  0.00  0.00     0.034 H 
ATOM     12  H3  <0> d           0.426   6.080  -0.314  0.00  0.00     0.034 H 
ATOM     13  H4  <0> d          -1.143   6.960  -0.720  0.00  0.00     0.034 H 
ATOM     14  H2  <0> d          -2.439   4.807  -0.377  0.00  0.00     0.050 H 
ENDBRANCH   2   7
BRANCH   5  15
ATOM     15  C4  <0> d           0.002  -0.004   0.002  0.00  0.00     0.231 C 
ATOM     16  O2  <0> d          -1.041  -0.625   0.008  0.00  0.00    -0.643 OA
ATOM     17  O3  <0> d           1.177  -0.661  -0.012  0.00  0.00    -0.643 OA
ENDBRANCH   5  15
TORSDOF 2
