REMARK  2 active torsions:
REMARK  status: ('A' for Active; 'I' for Inactive)
REMARK    1  A    between atoms: C1_1  and  O3_10 
REMARK    2  A    between atoms: C2_3  and  O2_9 
ROOT
ATOM      1  C1  <0> d           2.220   0.835  -0.015  0.00  0.00     0.146 A 
ATOM      2  H1  <0> d           2.831   0.901  -0.915  0.00  0.00     0.124 H 
ATOM      3  C2  <0> d           1.397  -0.468  -0.014  0.00  0.00     0.146 A 
ATOM      4  H2  <0> d           1.614  -1.059   0.876  0.00  0.00     0.124 H 
ATOM      5  N1  <0> d           0.002  -0.004   0.002  0.00  0.00    -0.313 N 
ATOM      6  C3  <0> d          -0.016   1.335   0.009  0.00  0.00     0.320 A 
ATOM      7  O1  <0> d          -1.044   1.984   0.018  0.00  0.00    -0.247 OA
ATOM      8  N2  <0> d           1.201   1.895   0.001  0.00  0.00    -0.313 N 
ATOM      9  H3  <0> d          -0.781  -0.577   0.006  0.00  0.00     0.167 HD
ATOM     10  H4  <0> d           1.381   2.848   0.004  0.00  0.00     0.167 HD
ENDROOT
BRANCH   1  11
ATOM     11  O3  <0> d           3.040   0.911   1.153  0.00  0.00    -0.372 OA
ATOM     12  H6  <0> d           3.580   1.712   1.203  0.00  0.00     0.212 HD
ENDBRANCH   1  11
BRANCH   3  13
ATOM     13  O2  <0> d           1.660  -1.228  -1.195  0.00  0.00    -0.372 OA
ATOM     14  H5  <0> d           1.122  -2.027  -1.277  0.00  0.00     0.212 HD
ENDBRANCH   3  13
TORSDOF 2
