REMARK  0 active torsions:
REMARK  status: ('A' for Active; 'I' for Inactive)
ROOT
ATOM      1  C1  <0> d           1.127   3.217   0.017  0.00  0.00     0.067 A 
ATOM      2  N1  <0> d          -0.025   3.912   0.026  0.00  0.00    -0.248 NA
ATOM      3  H1  <0> d           2.094   1.369   0.006  0.00  0.00     0.169 HD
ATOM      4  C2  <0> d          -1.228   3.267   0.031  0.00  0.00     0.047 A 
ATOM      5  C3  <0> d          -1.248   1.916   0.018  0.00  0.00     0.035 A 
ATOM      6  C4  <0> d          -0.015   1.217   0.009  0.00  0.00     0.254 A 
ATOM      7  O1  <0> d           0.002  -0.004   0.002  0.00  0.00    -0.268 OA
ATOM      8  N2  <0> d           1.137   1.912   0.010  0.00  0.00    -0.318 N 
ATOM      9  C5  <0> d          -2.672   1.411   0.017  0.00  0.00    -0.034 C 
ATOM     10  C6  <0> d          -3.527   2.625  -0.409  0.00  0.00    -0.056 C 
ATOM     11  C7  <0> d          -2.639   3.811   0.048  0.00  0.00    -0.024 C 
ATOM     12  H2  <0> d           2.002   3.701   0.014  0.00  0.00     0.143 H 
ATOM     13  H3  <0> d          -2.985   1.076   1.017  0.00  0.00     0.040 H 
ATOM     14  H4  <0> d          -2.812   0.593  -0.704  0.00  0.00     0.040 H 
ATOM     15  H5  <0> d          -3.686   2.598  -1.497  0.00  0.00     0.034 H 
ATOM     16  H6  <0> d          -4.498   2.588   0.105  0.00  0.00     0.034 H 
ATOM     17  H7  <0> d          -2.760   4.650  -0.652  0.00  0.00     0.042 H 
ATOM     18  H8  <0> d          -2.941   4.128   1.057  0.00  0.00     0.042 H 
ENDROOT
TORSDOF 0
