REMARK  1 active torsions:
REMARK  status: ('A' for Active; 'I' for Inactive)
REMARK    1  A    between atoms: C4_5  and  N2_7 
ROOT
ATOM      1  C1  <0> d          -0.017   1.379   0.010  0.00  0.00    -0.076 A 
ATOM      2  C2  <0> d           1.192   2.060   0.002  0.00  0.00    -0.045 A 
ATOM      3  C3  <0> d           2.381   1.334  -0.013  0.00  0.00     0.139 A 
ATOM      4  N1  <0> d           2.362   0.005  -0.021  0.00  0.00    -0.221 NA
ATOM      5  C4  <0> d           1.227  -0.670  -0.013  0.00  0.00     0.122 A 
ATOM      6  C5  <0> d           0.002  -0.004   0.002  0.00  0.00    -0.039 A 
ATOM      7  C6  <0> d           3.634   2.026  -0.022  0.00  0.00     0.119 C 
ATOM      8  N3  <0> d           4.629   2.575  -0.029  0.00  0.00    -0.190 NA
ATOM      9  H1  <0> d          -0.953   1.918   0.026  0.00  0.00     0.083 H 
ATOM     10  H2  <0> d           1.211   3.139   0.007  0.00  0.00     0.088 H 
ATOM     11  H3  <0> d          -0.922  -0.562   0.008  0.00  0.00     0.089 H 
ENDROOT
BRANCH   5  12
ATOM     12  N2  <0> d           1.253  -2.060  -0.021  0.00  0.00    -0.384 N 
ATOM     13  H4  <0> d           2.102  -2.529  -0.032  0.00  0.00     0.157 HD
ATOM     14  H5  <0> d           0.422  -2.561  -0.016  0.00  0.00     0.157 HD
ENDBRANCH   5  12
TORSDOF 1
