REMARK  0 active torsions:
REMARK  status: ('A' for Active; 'I' for Inactive)
ROOT
ATOM      1  C1  <0> d           3.622   3.893   0.013  0.00  0.00    -0.065 C 
ATOM      2  C2  <0> d           3.281   3.100  -1.250  0.00  0.00    -0.062 C 
ATOM      3  C3  <0> d           1.793   2.743  -1.241  0.00  0.00    -0.035 C 
ATOM      4  C4  <0> d           1.477   1.909  -0.002  0.00  0.00     0.071 C 
ATOM      5  C5  <0> d           1.827   2.688   1.264  0.00  0.00    -0.035 C 
ATOM      6  C6  <0> d           3.315   3.045   1.249  0.00  0.00    -0.062 C 
ATOM      7  C7  <0> d          -0.019   1.542   0.011  0.00  0.00    -0.027 C 
ATOM      8  C8  <0> d           0.002  -0.004   0.002  0.00  0.00     0.018 C 
ATOM      9  C9  <0> d           1.426  -0.342   0.405  0.00  0.00     0.259 C 
ATOM     10  O1  <0> d           1.786  -1.323   1.011  0.00  0.00    -0.265 OA
ATOM     11  O2  <0> d           2.212   0.656  -0.040  0.00  0.00    -0.310 OA
ATOM     12  H1  <0> d           4.681   4.152   0.005  0.00  0.00     0.033 H 
ATOM     13  H2  <0> d           3.026   4.805   0.042  0.00  0.00     0.033 H 
ATOM     14  H3  <0> d           3.874   2.186  -1.276  0.00  0.00     0.033 H 
ATOM     15  H4  <0> d           3.505   3.704  -2.130  0.00  0.00     0.033 H 
ATOM     16  H5  <0> d           1.551   2.171  -2.136  0.00  0.00     0.037 H 
ATOM     17  H6  <0> d           1.200   3.658  -1.224  0.00  0.00     0.037 H 
ATOM     18  H7  <0> d           1.234   3.602   1.304  0.00  0.00     0.037 H 
ATOM     19  H8  <0> d           1.609   2.075   2.139  0.00  0.00     0.037 H 
ATOM     20  H9  <0> d           3.908   2.130   1.218  0.00  0.00     0.033 H 
ATOM     21  H10 <0> d           3.563   3.609   2.148  0.00  0.00     0.033 H 
ATOM     22  H11 <0> d          -0.517   1.925  -0.880  0.00  0.00     0.038 H 
ATOM     23  H12 <0> d          -0.500   1.916   0.914  0.00  0.00     0.038 H 
ATOM     24  H13 <0> d          -0.707  -0.401   0.729  0.00  0.00     0.048 H 
ATOM     25  H14 <0> d          -0.215  -0.385  -0.996  0.00  0.00     0.048 H 
ENDROOT
TORSDOF 0
