REMARK  3 active torsions:
REMARK  status: ('A' for Active; 'I' for Inactive)
REMARK    1  A    between atoms: C1_1  and  S1_2 
REMARK    2  A    between atoms: S1_2  and  N1_3 
REMARK    3  A    between atoms: S1_2  and  C2_5 
ROOT
ATOM      1  C2  <0> d           0.831  -0.544  -1.456  0.00  0.00     0.039 A 
ATOM      2  C3  <0> d           0.115  -0.762  -2.618  0.00  0.00    -0.064 A 
ATOM      3  C4  <0> d           0.765  -1.186  -3.762  0.00  0.00    -0.082 A 
ATOM      4  C5  <0> d           2.132  -1.392  -3.743  0.00  0.00    -0.083 A 
ATOM      5  C6  <0> d           2.849  -1.174  -2.582  0.00  0.00    -0.082 A 
ATOM      6  C7  <0> d           2.199  -0.746  -1.439  0.00  0.00    -0.064 A 
ATOM      7  H5  <0> d          -0.953  -0.601  -2.632  0.00  0.00     0.085 H 
ATOM      8  H6  <0> d           0.205  -1.356  -4.669  0.00  0.00     0.083 H 
ATOM      9  H7  <0> d           2.640  -1.724  -4.637  0.00  0.00     0.083 H 
ATOM     10  H8  <0> d           3.916  -1.335  -2.567  0.00  0.00     0.083 H 
ATOM     11  H9  <0> d           2.759  -0.571  -0.532  0.00  0.00     0.085 H 
ENDROOT
BRANCH   1  12
ATOM     12  S1  <0> d           0.002  -0.004   0.002  0.00  0.00     0.066 S 
ATOM     13  O1  <0> d          -1.289  -0.597   0.033  0.00  0.00    -0.244 OA
BRANCH  12  14
ATOM     14  C1  <0> d          -0.022   1.810   0.012  0.00  0.00     0.003 C 
ATOM     15  H1  <0> d           1.000   2.187   0.004  0.00  0.00     0.047 H 
ATOM     16  H2  <0> d          -0.550   2.171  -0.871  0.00  0.00     0.047 H 
ATOM     17  H3  <0> d          -0.533   2.161   0.909  0.00  0.00     0.047 H 
ENDBRANCH  12  14
BRANCH  12  18
ATOM     18  N1  <0> d           0.769  -0.475   1.194  0.00  0.00    -0.249 NA
ATOM     19  H4  <0> d           1.098   0.167   1.843  0.00  0.00     0.197 HD
ENDBRANCH  12  18
ENDBRANCH   1  12
TORSDOF 3
