REMARK  4 active torsions:
REMARK  status: ('A' for Active; 'I' for Inactive)
REMARK    1  A    between atoms: C1_1  and  C2_2 
REMARK    2  A    between atoms: C2_2  and  C3_3 
REMARK    3  A    between atoms: C3_3  and  C4_5 
REMARK    4  A    between atoms: C8_9  and  C10_11 
ROOT
ATOM      1  C4  <0> d          -0.050   3.846   0.022  0.00  0.00     0.010 A 
ATOM      2  C5  <0> d           1.169   3.159   0.007  0.00  0.00    -0.070 A 
ATOM      3  C6  <0> d           1.179   1.781   0.000  0.00  0.00    -0.082 A 
ATOM      4  C7  <0> d          -0.013   1.076   0.008  0.00  0.00    -0.077 A 
ATOM      5  C8  <0> d          -1.222   1.748   0.017  0.00  0.00    -0.061 A 
ATOM      6  C9  <0> d          -1.249   3.127   0.030  0.00  0.00    -0.064 A 
ATOM      7  H6  <0> d           2.099   3.708   0.001  0.00  0.00     0.085 H 
ATOM      8  H7  <0> d           2.119   1.249  -0.011  0.00  0.00     0.083 H 
ATOM      9  H8  <0> d           0.002  -0.004   0.002  0.00  0.00     0.084 H 
ATOM     10  H9  <0> d          -2.194   3.649   0.042  0.00  0.00     0.085 H 
ENDROOT
BRANCH   1  11
ATOM     11  C3  <0> d          -0.070   5.317   0.030  0.00  0.00     0.159 C 
ATOM     12  O1  <0> d          -1.128   5.909   0.043  0.00  0.00    -0.292 OA
BRANCH  11  13
ATOM     13  C2  <0> d           1.225   6.088   0.023  0.00  0.00    -0.008 C 
ATOM     14  H4  <0> d           1.760   5.849   0.833  0.00  0.00     0.044 H 
ATOM     15  H5  <0> d           1.792   5.838  -0.874  0.00  0.00     0.044 H 
BRANCH  13  16
ATOM     16  C1  <0> d           0.925   7.589   0.033  0.00  0.00    -0.070 C 
ATOM     17  H1  <0> d           1.861   8.146   0.028  0.00  0.00     0.028 H 
ATOM     18  H2  <0> d           0.342   7.849  -0.850  0.00  0.00     0.028 H 
ATOM     19  H3  <0> d           0.358   7.839   0.930  0.00  0.00     0.028 H 
ENDBRANCH  13  16
ENDBRANCH  11  13
ENDBRANCH   1  11
BRANCH   5  20
ATOM     20  C10 <0> d          -2.514   0.971   0.019  0.00  0.00    -0.051 C 
ATOM     21  H10 <0> d          -2.820   0.778   1.047  0.00  0.00     0.033 H 
ATOM     22  H11 <0> d          -3.286   1.549  -0.488  0.00  0.00     0.033 H 
ATOM     23  H12 <0> d          -2.368   0.024  -0.500  0.00  0.00     0.033 H 
ENDBRANCH   5  20
TORSDOF 4
