REMARK  1 active torsions:
REMARK  status: ('A' for Active; 'I' for Inactive)
REMARK    1  A    between atoms: C3_3  and  C6_8 
ROOT
ATOM      1  C6  <0> d          -0.018   1.468   0.010  0.00  0.00     0.020 C 
ATOM      2  C7  <0> d           0.002  -0.004   0.002  0.00  0.00     0.059 C 
ATOM      3  N1  <0> d           0.018  -1.140  -0.004  0.00  0.00    -0.197 NA
ATOM      4  H10 <0> d          -0.550   1.832  -0.881  0.00  0.00     0.055 H 
ATOM      5  H11 <0> d           1.014   1.849   0.002  0.00  0.00     0.055 H 
ENDROOT
BRANCH   1   6
ATOM      6  C3  <0> d          -0.734   1.961   1.269  0.00  0.00    -0.022 C 
ATOM      7  C2  <0> d          -0.653   3.489   1.338  0.00  0.00    -0.057 C 
ATOM      8  C1  <0> d          -1.440   3.976   2.559  0.00  0.00    -0.045 C 
ATOM      9  H4  <0> d          -1.087   3.925   0.425  0.00  0.00     0.033 H 
ATOM     10  H5  <0> d           0.397   3.801   1.430  0.00  0.00     0.033 H 
ATOM     11  C5  <0> d          -2.882   3.474   2.461  0.00  0.00     0.019 C 
ATOM     12  H2  <0> d          -1.435   5.076   2.587  0.00  0.00     0.036 H 
ATOM     13  H3  <0> d          -0.977   3.584   3.477  0.00  0.00     0.036 H 
ATOM     14  O1  <0> d          -2.884   2.048   2.369  0.00  0.00    -0.391 OA
ATOM     15  H8  <0> d          -3.441   3.785   3.357  0.00  0.00     0.074 H 
ATOM     16  H9  <0> d          -3.359   3.901   1.566  0.00  0.00     0.074 H 
ATOM     17  C4  <0> d          -2.204   1.537   1.221  0.00  0.00     0.024 C 
ATOM     18  H6  <0> d          -2.671   1.937   0.309  0.00  0.00     0.074 H 
ATOM     19  H7  <0> d          -2.269   0.439   1.214  0.00  0.00     0.074 H 
ATOM     20  H1  <0> d          -0.252   1.524   2.155  0.00  0.00     0.044 H 
ENDBRANCH   1   6
TORSDOF 1
