REMARK  3 active torsions:
REMARK  status: ('A' for Active; 'I' for Inactive)
REMARK    1  A    between atoms: C1_1  and  C2_2 
REMARK    2  A    between atoms: C6_6  and  C9_9 
REMARK    3  A    between atoms: C7_7  and  C8_8 
REMARK       I    between atoms: C9_9  and  N1_11 
ROOT
ATOM      1  C2  <0> d           2.433   0.132   0.252  0.00  0.00    -0.055 A 
ATOM      2  C3  <0> d           1.300  -0.661   0.210  0.00  0.00    -0.077 A 
ATOM      3  C4  <0> d           0.063  -0.098  -0.047  0.00  0.00    -0.081 A 
ATOM      4  C5  <0> d          -0.048   1.260  -0.264  0.00  0.00    -0.067 A 
ATOM      5  C6  <0> d           1.091   2.066  -0.224  0.00  0.00     0.038 A 
ATOM      6  C7  <0> d           2.336   1.491   0.037  0.00  0.00    -0.040 A 
ATOM      7  H4  <0> d           1.382  -1.725   0.379  0.00  0.00     0.084 H 
ATOM      8  H5  <0> d          -0.818  -0.723  -0.078  0.00  0.00     0.083 H 
ATOM      9  H6  <0> d          -1.014   1.698  -0.469  0.00  0.00     0.085 H 
ENDROOT
BRANCH   5  10
ATOM     10  C9  <0> d           0.979   3.522  -0.455  0.00  0.00     0.249 C 
ATOM     11  O1  <0> d           1.982   4.204  -0.530  0.00  0.00    -0.268 OA
ATOM     12  N1  <0> d          -0.235   4.092  -0.582  0.00  0.00    -0.366 N 
ATOM     13  H10 <0> d          -1.036   3.548  -0.523  0.00  0.00     0.159 HD
ATOM     14  H11 <0> d          -0.309   5.048  -0.734  0.00  0.00     0.159 HD
ENDBRANCH   5  10
BRANCH   6  15
ATOM     15  C8  <0> d           3.571   2.353   0.083  0.00  0.00    -0.050 C 
ATOM     16  H7  <0> d           3.945   2.507  -0.930  0.00  0.00     0.033 H 
ATOM     17  H8  <0> d           3.325   3.316   0.530  0.00  0.00     0.033 H 
ATOM     18  H9  <0> d           4.337   1.859   0.681  0.00  0.00     0.033 H 
ENDBRANCH   6  15
BRANCH   1  19
ATOM     19  C1  <0> d           3.777  -0.491   0.532  0.00  0.00    -0.051 C 
ATOM     20  H1  <0> d           4.242  -0.790  -0.407  0.00  0.00     0.033 H 
ATOM     21  H2  <0> d           4.414   0.234   1.039  0.00  0.00     0.033 H 
ATOM     22  H3  <0> d           3.646  -1.366   1.168  0.00  0.00     0.033 H 
ENDBRANCH   1  19
TORSDOF 3
