REMARK  4 active torsions:
REMARK  status: ('A' for Active; 'I' for Inactive)
REMARK    1  A    between atoms: C1_1  and  C2_2 
REMARK    2  A    between atoms: C2_2  and  C3_4 
REMARK    3  A    between atoms: C2_2  and  O2_12 
REMARK    4  A    between atoms: C8_9  and  O1_10 
ROOT
ATOM      1  C3  <0> d           0.731  -0.503   1.223  0.00  0.00     0.006 A 
ATOM      2  C4  <0> d           2.077  -0.808   1.148  0.00  0.00    -0.035 A 
ATOM      3  C5  <0> d           2.747  -1.266   2.270  0.00  0.00     0.117 A 
ATOM      4  C6  <0> d           2.069  -1.420   3.467  0.00  0.00    -0.043 A 
ATOM      5  C7  <0> d           0.724  -1.116   3.545  0.00  0.00    -0.048 A 
ATOM      6  C8  <0> d           0.053  -0.652   2.424  0.00  0.00     0.074 A 
ATOM      7  F1  <0> d           4.062  -1.564   2.195  0.00  0.00    -0.206 F 
ATOM      8  H5  <0> d           2.606  -0.689   0.214  0.00  0.00     0.089 H 
ATOM      9  H6  <0> d           2.593  -1.778   4.341  0.00  0.00     0.088 H 
ATOM     10  H7  <0> d           0.196  -1.237   4.479  0.00  0.00     0.087 H 
ENDROOT
BRANCH   1  11
ATOM     11  C2  <0> d           0.002  -0.004   0.002  0.00  0.00     0.060 C 
ATOM     12  H1  <0> d          -1.020  -0.381   0.010  0.00  0.00     0.090 H 
BRANCH  11  13
ATOM     13  C1  <0> d          -0.019   1.526   0.010  0.00  0.00    -0.049 C 
ATOM     14  H2  <0> d           1.004   1.903   0.003  0.00  0.00     0.031 H 
ATOM     15  H3  <0> d          -0.546   1.887  -0.873  0.00  0.00     0.031 H 
ATOM     16  H4  <0> d          -0.529   1.877   0.907  0.00  0.00     0.031 H 
ENDBRANCH  11  13
BRANCH  11  17
ATOM     17  O2  <0> d           0.671  -0.465  -1.174  0.00  0.00    -0.391 OA
ATOM     18  H9  <0> d           0.256  -0.181  -1.999  0.00  0.00     0.210 HD
ENDBRANCH  11  17
ENDBRANCH   1  11
BRANCH   6  19
ATOM     19  O1  <0> d          -1.270  -0.347   2.500  0.00  0.00    -0.360 OA
ATOM     20  H8  <0> d          -1.857  -1.090   2.304  0.00  0.00     0.217 HD
ENDBRANCH   6  19
TORSDOF 4
