REMARK  0 active torsions:
REMARK  status: ('A' for Active; 'I' for Inactive)
ROOT
ATOM      1  C1  <0> d          -0.017   1.362   0.009  0.00  0.00    -0.082 A 
ATOM      2  C2  <0> d           1.170   2.083   0.002  0.00  0.00    -0.081 A 
ATOM      3  C3  <0> d           2.386   1.436  -0.013  0.00  0.00    -0.054 A 
ATOM      4  C4  <0> d           2.428   0.046  -0.021  0.00  0.00     0.075 A 
ATOM      5  C5  <0> d           1.223  -0.681  -0.013  0.00  0.00    -0.005 A 
ATOM      6  C6  <0> d           0.002  -0.004   0.002  0.00  0.00    -0.071 A 
ATOM      7  C7  <0> d           1.604  -2.095  -0.025  0.00  0.00    -0.053 A 
ATOM      8  C8  <0> d           2.945  -2.141  -0.038  0.00  0.00     0.012 A 
ATOM      9  N1  <0> d           3.455  -0.871  -0.036  0.00  0.00    -0.199 N 
ATOM     10  O1  <0> d           4.834  -0.548  -0.048  0.00  0.00    -0.081 OA
ATOM     11  H1  <0> d          -0.961   1.885   0.026  0.00  0.00     0.083 H 
ATOM     12  H2  <0> d           1.139   3.163   0.008  0.00  0.00     0.083 H 
ATOM     13  H3  <0> d           3.303   2.006  -0.020  0.00  0.00     0.087 H 
ATOM     14  H4  <0> d          -0.925  -0.559   0.008  0.00  0.00     0.084 H 
ATOM     15  H5  <0> d           0.932  -2.941  -0.022  0.00  0.00     0.087 H 
ATOM     16  H6  <0> d           3.535  -3.046  -0.049  0.00  0.00     0.115 H 
ENDROOT
TORSDOF 0
