REMARK  3 active torsions:
REMARK  status: ('A' for Active; 'I' for Inactive)
REMARK    1  A    between atoms: C1_1  and  C2_2 
REMARK    2  A    between atoms: C5_5  and  C8_8 
REMARK    3  A    between atoms: C8_8  and  N2_12 
ROOT
ATOM      1  C8  <0> d          -2.514   0.980   0.019  0.00  0.00     0.237 C 
ATOM      2  H1  <0> d          -2.357  -0.048  -0.341  0.00  0.00     0.119 H 
ATOM      3  C9  <0> d          -3.052   0.928   1.388  0.00  0.00     0.100 C 
ATOM      4  N1  <0> d          -3.468   0.888   2.445  0.00  0.00    -0.195 NA
ENDROOT
BRANCH   1   5
ATOM      5  C5  <0> d          -1.219   1.751   0.017  0.00  0.00    -0.012 A 
ATOM      6  C4  <0> d          -0.013   1.076   0.008  0.00  0.00    -0.073 A 
ATOM      7  C3  <0> d           1.175   1.783   0.000  0.00  0.00    -0.077 A 
ATOM      8  H6  <0> d           0.002  -0.004   0.002  0.00  0.00     0.084 H 
ATOM      9  C2  <0> d           1.156   3.165   0.008  0.00  0.00    -0.062 A 
ATOM     10  H5  <0> d           2.118   1.256  -0.011  0.00  0.00     0.084 H 
ATOM     11  C7  <0> d          -0.050   3.840   0.022  0.00  0.00    -0.077 A 
ATOM     12  C6  <0> d          -1.238   3.133   0.030  0.00  0.00    -0.073 A 
ATOM     13  H8  <0> d          -0.065   4.920   0.028  0.00  0.00     0.084 H 
ATOM     14  H7  <0> d          -2.180   3.660   0.042  0.00  0.00     0.084 H 
BRANCH   9  15
ATOM     15  C1  <0> d           2.451   3.937  -0.001  0.00  0.00    -0.051 C 
ATOM     16  H2  <0> d           3.297   3.233  -0.013  0.00  0.00     0.033 H 
ATOM     17  H3  <0> d           2.509   4.566   0.899  0.00  0.00     0.033 H 
ATOM     18  H4  <0> d           2.492   4.574  -0.897  0.00  0.00     0.033 H 
ENDBRANCH   9  15
ENDBRANCH   1   5
BRANCH   1  19
ATOM     19  N2  <0> d          -3.482   1.645  -0.863  0.00  0.00     0.100 N 
ATOM     20  H9  <0> d          -4.427   1.082  -0.861  0.00  0.00     0.315 HD
ATOM     21  H10 <0> d          -3.663   2.668  -0.501  0.00  0.00     0.315 HD
ENDBRANCH   1  19
TORSDOF 3
