REMARK  0 active torsions:
REMARK  status: ('A' for Active; 'I' for Inactive)
ROOT
ATOM      1  C1  <0> d           2.602   4.011   0.319  0.00  0.00    -0.082 A 
ATOM      2  C2  <0> d           3.738   3.305  -0.038  0.00  0.00    -0.080 A 
ATOM      3  C3  <0> d           3.657   1.967  -0.378  0.00  0.00    -0.050 A 
ATOM      4  C4  <0> d           2.431   1.327  -0.361  0.00  0.00     0.079 A 
ATOM      5  C5  <0> d           1.280   2.040   0.001  0.00  0.00    -0.003 A 
ATOM      6  C6  <0> d           1.371   3.385   0.341  0.00  0.00    -0.070 A 
ATOM      7  C7  <0> d          -0.016   1.327   0.009  0.00  0.00    -0.072 C 
ATOM      8  C8  <0> d           0.002  -0.004   0.002  0.00  0.00    -0.079 C 
ATOM      9  C9  <0> d           1.316  -0.740  -0.001  0.00  0.00     0.041 C 
ATOM     10  O1  <0> d           2.313   0.015  -0.689  0.00  0.00    -0.347 OA
ATOM     11  H1  <0> d           2.679   5.056   0.582  0.00  0.00     0.083 H 
ATOM     12  H2  <0> d           4.696   3.804  -0.052  0.00  0.00     0.083 H 
ATOM     13  H3  <0> d           4.548   1.423  -0.656  0.00  0.00     0.087 H 
ATOM     14  H4  <0> d           0.485   3.937   0.619  0.00  0.00     0.084 H 
ATOM     15  H5  <0> d          -0.949   1.870   0.017  0.00  0.00     0.084 H 
ATOM     16  H6  <0> d          -0.926  -0.556  -0.002  0.00  0.00     0.080 H 
ATOM     17  H7  <0> d           1.637  -0.906   1.027  0.00  0.00     0.081 H 
ATOM     18  H8  <0> d           1.188  -1.702  -0.497  0.00  0.00     0.081 H 
ENDROOT
TORSDOF 0
