REMARK  3 active torsions:
REMARK  status: ('A' for Active; 'I' for Inactive)
REMARK    1  A    between atoms: C1_1  and  C2_2 
REMARK    2  A    between atoms: C2_2  and  C3_3 
REMARK    3  A    between atoms: C3_3  and  C4_4 
ROOT
ATOM      1  C3  <0> d           0.718  -0.497  -1.257  0.00  0.00    -0.037 C 
ATOM      2  H6  <0> d           0.191  -0.136  -2.140  0.00  0.00     0.040 H 
ATOM      3  H7  <0> d           1.741  -0.120  -1.264  0.00  0.00     0.040 H 
ENDROOT
BRANCH   1   4
ATOM      4  C2  <0> d           0.002  -0.004   0.002  0.00  0.00    -0.065 C 
ATOM      5  H4  <0> d           0.529  -0.365   0.885  0.00  0.00     0.032 H 
ATOM      6  H5  <0> d          -1.020  -0.381   0.010  0.00  0.00     0.032 H 
BRANCH   4   7
ATOM      7  C1  <0> d          -0.019   1.526   0.010  0.00  0.00    -0.076 C 
ATOM      8  H1  <0> d           1.004   1.903   0.003  0.00  0.00     0.027 H 
ATOM      9  H2  <0> d          -0.546   1.887  -0.873  0.00  0.00     0.027 H 
ATOM     10  H3  <0> d          -0.529   1.877   0.907  0.00  0.00     0.027 H 
ENDBRANCH   4   7
ENDBRANCH   1   4
BRANCH   1  11
ATOM     11  C4  <0> d           0.739  -2.004  -1.265  0.00  0.00    -0.000 A 
ATOM     12  C7  <0> d          -0.337  -2.727  -1.762  0.00  0.00     0.135 A 
ATOM     13  N2  <0> d          -0.282  -4.050  -1.753  0.00  0.00    -0.229 NA
ATOM     14 Cl1  <0> d          -1.733  -1.908  -2.389  0.00  0.00    -0.062 Cl
ATOM     15  C6  <0> d           0.775  -4.679  -1.280  0.00  0.00     0.087 A 
ATOM     16  N1  <0> d           1.814  -4.025  -0.800  0.00  0.00    -0.253 NA
ATOM     17  H9  <0> d           0.791  -5.759  -1.286  0.00  0.00     0.146 H 
ATOM     18  C5  <0> d           1.834  -2.702  -0.782  0.00  0.00     0.013 A 
ATOM     19  H8  <0> d           2.690  -2.172  -0.391  0.00  0.00     0.115 H 
ENDBRANCH   1  11
TORSDOF 3
