REMARK  0 active torsions:
REMARK  status: ('A' for Active; 'I' for Inactive)
ROOT
ATOM      1  C1  <0> d          -0.017   1.383   0.010  0.00  0.00    -0.065 A 
ATOM      2  C2  <0> d           1.193   2.061   0.002  0.00  0.00    -0.063 A 
ATOM      3  C3  <0> d           2.353   1.317  -0.013  0.00  0.00     0.033 A 
ATOM      4  C4  <0> d           2.330  -0.096  -0.021  0.00  0.00     0.074 A 
ATOM      5  C5  <0> d           3.642  -0.721  -0.037  0.00  0.00    -0.048 A 
ATOM      6  C6  <0> d           4.740   0.052  -0.043  0.00  0.00    -0.042 A 
ATOM      7  S1  <0> d           4.082   1.709  -0.028  0.00  0.00    -0.100 SA
ATOM      8  N1  <0> d           1.118  -0.688  -0.013  0.00  0.00    -0.260 NA
ATOM      9  C7  <0> d           0.002  -0.004   0.002  0.00  0.00     0.003 A 
ATOM     10  H1  <0> d          -0.952   1.922   0.026  0.00  0.00     0.085 H 
ATOM     11  H2  <0> d           1.224   3.141   0.007  0.00  0.00     0.085 H 
ATOM     12  H3  <0> d           3.734  -1.797  -0.043  0.00  0.00     0.087 H 
ATOM     13  H4  <0> d           5.775  -0.256  -0.054  0.00  0.00     0.095 H 
ATOM     14  H5  <0> d          -0.937  -0.538   0.008  0.00  0.00     0.114 H 
ENDROOT
TORSDOF 0
