REMARK  3 active torsions:
REMARK  status: ('A' for Active; 'I' for Inactive)
REMARK    1  A    between atoms: C1_1  and  C2_2 
REMARK    2  A    between atoms: C7_7  and  C8_8 
REMARK    3  A    between atoms: C8_8  and  C9_10 
ROOT
ATOM      1  C2  <0> d          -0.228  -0.027   0.035  0.00  0.00    -0.048 A 
ATOM      2  C3  <0> d          -0.326  -0.712  -1.157  0.00  0.00    -0.076 A 
ATOM      3  C4  <0> d          -0.079  -2.073  -1.200  0.00  0.00    -0.082 A 
ATOM      4  C5  <0> d           0.268  -2.757  -0.048  0.00  0.00    -0.082 A 
ATOM      5  C6  <0> d           0.371  -2.087   1.152  0.00  0.00    -0.069 A 
ATOM      6  C7  <0> d           0.129  -0.710   1.202  0.00  0.00     0.015 A 
ATOM      7  H4  <0> d          -0.598  -0.185  -2.060  0.00  0.00     0.084 H 
ATOM      8  H5  <0> d          -0.158  -2.604  -2.137  0.00  0.00     0.083 H 
ATOM      9  H6  <0> d           0.459  -3.820  -0.090  0.00  0.00     0.083 H 
ATOM     10  H7  <0> d           0.642  -2.622   2.050  0.00  0.00     0.085 H 
ENDROOT
BRANCH   6  11
ATOM     11  C8  <0> d           0.242   0.015   2.478  0.00  0.00     0.156 C 
ATOM     12  O1  <0> d           0.140   1.223   2.501  0.00  0.00    -0.293 OA
BRANCH  11  13
ATOM     13  C9  <0> d           0.485  -0.745   3.757  0.00  0.00    -0.017 C 
ATOM     14  H8  <0> d           0.548  -1.811   3.540  0.00  0.00     0.038 H 
ATOM     15  H9  <0> d           1.420  -0.410   4.206  0.00  0.00     0.038 H 
ATOM     16  H10 <0> d          -0.336  -0.563   4.450  0.00  0.00     0.038 H 
ENDBRANCH  11  13
ENDBRANCH   6  11
BRANCH   1  17
ATOM     17  C1  <0> d          -0.496   1.455   0.080  0.00  0.00    -0.050 C 
ATOM     18  H1  <0> d           0.447   1.998   0.019  0.00  0.00     0.033 H 
ATOM     19  H2  <0> d          -1.131   1.735  -0.761  0.00  0.00     0.033 H 
ATOM     20  H3  <0> d          -1.000   1.705   1.014  0.00  0.00     0.033 H 
ENDBRANCH   1  17
TORSDOF 3
