REMARK  2 active torsions:
REMARK  status: ('A' for Active; 'I' for Inactive)
REMARK    1  A    between atoms: C1_1  and  C2_2 
REMARK       I    between atoms: N1_8  and  C7_9 
REMARK       I    between atoms: C7_9  and  N2_11 
REMARK    2  A    between atoms: N2_11  and  C8_12 
ROOT
ATOM      1  C2  <0> d           0.570  -0.499  -1.244  0.00  0.00     0.013 C 
ATOM      2  H1  <0> d           0.006  -0.186  -2.123  0.00  0.00     0.072 H 
ATOM      3  C3  <0> d          -0.068   0.100   0.014  0.00  0.00    -0.046 C 
ATOM      4  C4  <0> d           0.065   1.624  -0.028  0.00  0.00    -0.062 C 
ATOM      5  C5  <0> d           1.546   2.009  -0.049  0.00  0.00    -0.050 C 
ATOM      6  C6  <0> d           2.202   1.431  -1.307  0.00  0.00    -0.000 C 
ATOM      7  N1  <0> d           1.954  -0.016  -1.348  0.00  0.00    -0.330 N 
ATOM      8  C7  <0> d           2.976  -0.885  -1.480  0.00  0.00     0.318 C 
ATOM      9  O1  <0> d           2.751  -2.071  -1.620  0.00  0.00    -0.247 OA
ATOM     10  N2  <0> d           4.247  -0.438  -1.456  0.00  0.00    -0.347 N 
ATOM     11  H5  <0> d           0.441  -0.285   0.898  0.00  0.00     0.035 H 
ATOM     12  H6  <0> d          -1.122  -0.172   0.052  0.00  0.00     0.035 H 
ATOM     13  H7  <0> d          -0.422   2.007  -0.925  0.00  0.00     0.033 H 
ATOM     14  H8  <0> d          -0.410   2.055   0.854  0.00  0.00     0.033 H 
ATOM     15  H9  <0> d           1.640   3.095  -0.055  0.00  0.00     0.035 H 
ATOM     16  H10 <0> d           2.039   1.606   0.836  0.00  0.00     0.035 H 
ATOM     17  H11 <0> d           3.275   1.617  -1.278  0.00  0.00     0.064 H 
ATOM     18  H12 <0> d           1.772   1.901  -2.192  0.00  0.00     0.064 H 
ATOM     19  H13 <0> d           4.429   0.496  -1.269  0.00  0.00     0.163 HD
ENDROOT
BRANCH   1  20
ATOM     20  C1  <0> d           0.562  -2.025  -1.145  0.00  0.00    -0.057 C 
ATOM     21  H2  <0> d          -0.454  -2.372  -0.958  0.00  0.00     0.030 H 
ATOM     22  H3  <0> d           0.925  -2.452  -2.080  0.00  0.00     0.030 H 
ATOM     23  H4  <0> d           1.210  -2.340  -0.327  0.00  0.00     0.030 H 
ENDBRANCH   1  20
BRANCH  10  24
ATOM     24  C8  <0> d           5.354  -1.363  -1.710  0.00  0.00    -0.017 C 
ATOM     25  H14 <0> d           5.245  -1.794  -2.706  0.00  0.00     0.056 H 
ATOM     26  H15 <0> d           6.299  -0.825  -1.649  0.00  0.00     0.056 H 
ATOM     27  H16 <0> d           5.340  -2.160  -0.966  0.00  0.00     0.056 H 
ENDBRANCH  10  24
TORSDOF 2
