REMARK  3 active torsions:
REMARK  status: ('A' for Active; 'I' for Inactive)
REMARK    1  A    between atoms: C1_1  and  C2_2 
REMARK    2  A    between atoms: C3_4  and  C6_10 
REMARK    3  A    between atoms: C4_6  and  C5_9 
ROOT
ATOM      1  C2  <0> d          -0.729   1.579   1.267  0.00  0.00     0.075 C 
ATOM      2  H1  <0> d          -0.807   2.675   1.220  0.00  0.00     0.092 H 
ATOM      3  C3  <0> d          -0.013   1.089   2.506  0.00  0.00     0.034 C 
ATOM      4  N1  <0> d          -0.886   0.661   3.338  0.00  0.00    -0.265 NA
ATOM      5  C4  <0> d          -2.230   0.814   2.769  0.00  0.00     0.121 C 
ATOM      6  H2  <0> d          -2.733   1.697   3.192  0.00  0.00     0.120 H 
ATOM      7  O1  <0> d          -2.049   1.004   1.352  0.00  0.00    -0.355 OA
ENDROOT
BRANCH   1   8
ATOM      8  C1  <0> d          -0.013   1.086   0.008  0.00  0.00    -0.047 C 
ATOM      9  H3  <0> d           0.991   1.533  -0.042  0.00  0.00     0.031 H 
ATOM     10  H4  <0> d          -0.590   1.379  -0.881  0.00  0.00     0.031 H 
ATOM     11  H5  <0> d           0.076  -0.010   0.042  0.00  0.00     0.031 H 
ENDBRANCH   1   8
BRANCH   3  12
ATOM     12  C6  <0> d           1.478   1.103   2.724  0.00  0.00    -0.037 C 
ATOM     13  H9  <0> d           1.707   0.685   3.716  0.00  0.00     0.035 H 
ATOM     14  H10 <0> d           1.847   2.137   2.668  0.00  0.00     0.035 H 
ATOM     15  H11 <0> d           1.967   0.495   1.949  0.00  0.00     0.035 H 
ENDBRANCH   3  12
BRANCH   5  16
ATOM     16  C5  <0> d          -3.059  -0.445   3.029  0.00  0.00    -0.035 C 
ATOM     17  H6  <0> d          -4.063  -0.319   2.598  0.00  0.00     0.033 H 
ATOM     18  H7  <0> d          -3.143  -0.611   4.113  0.00  0.00     0.033 H 
ATOM     19  H8  <0> d          -2.566  -1.311   2.562  0.00  0.00     0.033 H 
ENDBRANCH   5  16
TORSDOF 3
