REMARK  8 active torsions:
REMARK  status: ('A' for Active; 'I' for Inactive)
REMARK    1  A    between atoms: C1_1  and  C2_2 
REMARK    2  A    between atoms: C2_2  and  C3_3 
REMARK    3  A    between atoms: C3_3  and  C4_4 
REMARK    4  A    between atoms: C4_4  and  C5_5 
REMARK       I    between atoms: C5_5  and  N1_7 
REMARK    5  A    between atoms: N1_7  and  C6_8 
REMARK    6  A    between atoms: C6_8  and  C7_9 
REMARK    7  A    between atoms: C7_9  and  C8_10 
REMARK    8  A    between atoms: C8_10  and  C9_11 
ROOT
ATOM      1  C5  <0> d           1.147   1.655  -0.000  0.00  0.00     0.217 C 
ATOM      2  O1  <0> d           1.130   2.868   0.007  0.00  0.00    -0.274 OA
ATOM      3  N1  <0> d          -0.011   0.966   0.007  0.00  0.00    -0.361 N 
ATOM      4  H10 <0> d           0.002  -0.004   0.002  0.00  0.00     0.162 HD
ENDROOT
BRANCH   1   5
ATOM      5  C4  <0> d           2.462   0.920  -0.017  0.00  0.00     0.009 C 
ATOM      6  H8  <0> d           2.537   0.289   0.869  0.00  0.00     0.047 H 
ATOM      7  H9  <0> d           2.520   0.299  -0.910  0.00  0.00     0.047 H 
BRANCH   5   8
ATOM      8  C3  <0> d           3.611   1.930  -0.022  0.00  0.00    -0.058 C 
ATOM      9  H6  <0> d           3.537   2.560  -0.908  0.00  0.00     0.033 H 
ATOM     10  H7  <0> d           3.554   2.551   0.872  0.00  0.00     0.033 H 
BRANCH   8  11
ATOM     11  C2  <0> d           4.946   1.183  -0.039  0.00  0.00    -0.068 C 
ATOM     12  H4  <0> d           5.021   0.552   0.847  0.00  0.00     0.032 H 
ATOM     13  H5  <0> d           5.004   0.562  -0.933  0.00  0.00     0.032 H 
BRANCH  11  14
ATOM     14  C1  <0> d           6.096   2.193  -0.044  0.00  0.00    -0.077 C 
ATOM     15  H1  <0> d           6.038   2.814   0.850  0.00  0.00     0.027 H 
ATOM     16  H2  <0> d           7.047   1.661  -0.056  0.00  0.00     0.027 H 
ATOM     17  H3  <0> d           6.021   2.824  -0.930  0.00  0.00     0.027 H 
ENDBRANCH  11  14
ENDBRANCH   8  11
ENDBRANCH   5   8
ENDBRANCH   1   5
BRANCH   3  18
ATOM     18  C6  <0> d          -1.290   1.681   0.017  0.00  0.00    -0.005 C 
ATOM     19  H11 <0> d          -1.352   2.302   0.911  0.00  0.00     0.064 H 
ATOM     20  H12 <0> d          -1.360   2.312  -0.869  0.00  0.00     0.064 H 
BRANCH  18  21
ATOM     21  C7  <0> d          -2.439   0.671   0.017  0.00  0.00    -0.051 C 
ATOM     22  H13 <0> d          -2.377   0.050  -0.876  0.00  0.00     0.035 H 
ATOM     23  H14 <0> d          -2.369   0.040   0.903  0.00  0.00     0.035 H 
BRANCH  21  24
ATOM     24  C8  <0> d          -3.774   1.418   0.028  0.00  0.00    -0.067 C 
ATOM     25  H15 <0> d          -3.836   2.039   0.921  0.00  0.00     0.032 H 
ATOM     26  H16 <0> d          -3.845   2.049  -0.859  0.00  0.00     0.032 H 
BRANCH  24  27
ATOM     27  C9  <0> d          -4.923   0.408   0.028  0.00  0.00    -0.076 C 
ATOM     28  H17 <0> d          -4.862  -0.213  -0.866  0.00  0.00     0.027 H 
ATOM     29  H18 <0> d          -4.853  -0.223   0.914  0.00  0.00     0.027 H 
ATOM     30  H19 <0> d          -5.875   0.940   0.035  0.00  0.00     0.027 H 
ENDBRANCH  24  27
ENDBRANCH  21  24
ENDBRANCH  18  21
ENDBRANCH   3  18
TORSDOF 8
