REMARK  4 active torsions:
REMARK  status: ('A' for Active; 'I' for Inactive)
REMARK    1  A    between atoms: C1_1  and  C2_2 
REMARK    2  A    between atoms: C4_4  and  C9_10 
REMARK    3  A    between atoms: C5_5  and  C8_9 
REMARK    4  A    between atoms: C6_6  and  O1_8 
ROOT
ATOM      1  C2  <0> d          -0.018   1.503   0.010  0.00  0.00    -0.059 A 
ATOM      2  C3  <0> d          -1.226   2.177   0.020  0.00  0.00    -0.071 A 
ATOM      3  C4  <0> d          -1.248   3.559   0.033  0.00  0.00    -0.053 A 
ATOM      4  C5  <0> d          -0.063   4.271   0.026  0.00  0.00    -0.023 A 
ATOM      5  C6  <0> d           1.149   3.596   0.010  0.00  0.00     0.072 A 
ATOM      6  C7  <0> d           1.169   2.209   0.003  0.00  0.00    -0.045 A 
ATOM      7  H4  <0> d          -2.153   1.623   0.021  0.00  0.00     0.085 H 
ATOM      8  H5  <0> d           2.111   1.682  -0.009  0.00  0.00     0.088 H 
ENDROOT
BRANCH   1   9
ATOM      9  C1  <0> d           0.002  -0.004   0.002  0.00  0.00    -0.051 C 
ATOM     10  H1  <0> d           0.017  -0.373   1.028  0.00  0.00     0.033 H 
ATOM     11  H2  <0> d          -0.888  -0.377  -0.505  0.00  0.00     0.033 H 
ATOM     12  H3  <0> d           0.892  -0.352  -0.522  0.00  0.00     0.033 H 
ENDBRANCH   1   9
BRANCH   5  13
ATOM     13  O1  <0> d           2.316   4.293   0.003  0.00  0.00    -0.360 OA
ATOM     14  H6  <0> d           2.644   4.500  -0.883  0.00  0.00     0.217 HD
ENDBRANCH   5  13
BRANCH   3  15
ATOM     15  C9  <0> d          -2.565   4.291   0.049  0.00  0.00    -0.051 C 
ATOM     16  H10 <0> d          -2.892   4.473  -0.975  0.00  0.00     0.033 H 
ATOM     17  H11 <0> d          -3.310   3.687   0.567  0.00  0.00     0.033 H 
ATOM     18  H12 <0> d          -2.446   5.243   0.567  0.00  0.00     0.033 H 
ENDBRANCH   3  15
BRANCH   4  19
ATOM     19  C8  <0> d          -0.088   5.777   0.034  0.00  0.00    -0.048 C 
ATOM     20  H7  <0> d          -0.103   6.146  -0.991  0.00  0.00     0.033 H 
ATOM     21  H8  <0> d          -0.979   6.123   0.559  0.00  0.00     0.033 H 
ATOM     22  H9  <0> d           0.801   6.152   0.542  0.00  0.00     0.033 H 
ENDBRANCH   4  19
TORSDOF 4
