REMARK  1 active torsions:
REMARK  status: ('A' for Active; 'I' for Inactive)
REMARK    1  A    between atoms: C1_1  and  C2_2 
ROOT
ATOM      1  C2  <0> d           0.002  -0.004   0.002  0.00  0.00    -0.046 C 
ATOM      2  H1  <0> d          -1.022  -0.376   0.010  0.00  0.00     0.040 H 
ATOM      3  C3  <0> d           0.707  -0.493  -1.275  0.00  0.00    -0.022 C 
ATOM      4  C4  <0> d           2.150  -0.077  -1.158  0.00  0.00     0.051 C 
ATOM      5  N1  <0> d           2.908   0.627  -1.899  0.00  0.00    -0.159 NA
ATOM      6  N2  <0> d           4.133   0.900  -1.289  0.00  0.00    -0.166 NA
ATOM      7  C5  <0> d           4.252   0.317  -0.136  0.00  0.00     0.020 C 
ATOM      8  C6  <0> d           2.997  -0.490   0.045  0.00  0.00     0.077 C 
ATOM      9  H2  <0> d           3.207  -1.560   0.042  0.00  0.00     0.069 H 
ATOM     10  C7  <0> d           2.179  -0.073   1.246  0.00  0.00     0.142 C 
ATOM     11  O1  <0> d           2.658   0.567   2.152  0.00  0.00    -0.297 OA
ATOM     12  C8  <0> d           0.726  -0.503   1.251  0.00  0.00    -0.005 C 
ATOM     13  H6  <0> d           0.636  -1.578  -1.348  0.00  0.00     0.042 H 
ATOM     14  H7  <0> d           0.255  -0.028  -2.151  0.00  0.00     0.042 H 
ATOM     15  H8  <0> d           5.082   0.396   0.551  0.00  0.00     0.112 H 
ATOM     16  H9  <0> d           0.236  -0.095   2.135  0.00  0.00     0.044 H 
ATOM     17  H10 <0> d           0.674  -1.591   1.284  0.00  0.00     0.044 H 
ENDROOT
BRANCH   1  18
ATOM     18  C1  <0> d          -0.019   1.526   0.010  0.00  0.00    -0.072 C 
ATOM     19  H3  <0> d           1.004   1.903   0.003  0.00  0.00     0.028 H 
ATOM     20  H4  <0> d          -0.546   1.887  -0.873  0.00  0.00     0.028 H 
ATOM     21  H5  <0> d          -0.529   1.877   0.907  0.00  0.00     0.028 H 
ENDBRANCH   1  18
TORSDOF 1
