REMARK  0 active torsions:
REMARK  status: ('A' for Active; 'I' for Inactive)
ROOT
ATOM      1  C1  <0> d          -1.238   3.140   0.029  0.00  0.00    -0.081 A 
ATOM      2  C2  <0> d          -1.214   1.753   0.017  0.00  0.00    -0.081 A 
ATOM      3  C3  <0> d          -0.013   1.076   0.008  0.00  0.00    -0.055 A 
ATOM      4  C4  <0> d           1.178   1.790   0.000  0.00  0.00     0.064 A 
ATOM      5  C5  <0> d           1.153   3.193   0.009  0.00  0.00     0.085 A 
ATOM      6  C6  <0> d          -0.077   3.859   0.023  0.00  0.00    -0.053 A 
ATOM      7  N1  <0> d           2.443   3.611  -0.002  0.00  0.00    -0.233 NA
ATOM      8  C7  <0> d           3.243   2.577  -0.018  0.00  0.00     0.107 A 
ATOM      9  N2  <0> d           2.514   1.430  -0.014  0.00  0.00    -0.333 N 
ATOM     10  C8  <0> d           3.389   0.248  -0.024  0.00  0.00     0.002 C 
ATOM     11  C9  <0> d           4.772   0.761  -0.478  0.00  0.00    -0.043 C 
ATOM     12  C10 <0> d           4.722   2.241  -0.040  0.00  0.00    -0.008 C 
ATOM     13  H1  <0> d          -2.186   3.658   0.041  0.00  0.00     0.083 H 
ATOM     14  H2  <0> d          -2.141   1.200   0.018  0.00  0.00     0.083 H 
ATOM     15  H3  <0> d           0.002  -0.004   0.002  0.00  0.00     0.087 H 
ATOM     16  H4  <0> d          -0.108   4.938   0.030  0.00  0.00     0.087 H 
ATOM     17  H5  <0> d           3.013  -0.494  -0.729  0.00  0.00     0.065 H 
ATOM     18  H6  <0> d           3.456  -0.182   0.975  0.00  0.00     0.065 H 
ATOM     19  H7  <0> d           4.883   0.678  -1.559  0.00  0.00     0.035 H 
ATOM     20  H8  <0> d           5.573   0.230   0.036  0.00  0.00     0.035 H 
ATOM     21  H9  <0> d           5.245   2.870  -0.762  0.00  0.00     0.044 H 
ATOM     22  H10 <0> d           5.155   2.362   0.953  0.00  0.00     0.044 H 
ENDROOT
TORSDOF 0
