REMARK  3 active torsions:
REMARK  status: ('A' for Active; 'I' for Inactive)
REMARK    1  A    between atoms: C1_1  and  N1_2 
REMARK    2  A    between atoms: N1_2  and  C2_3 
REMARK    3  A    between atoms: N1_2  and  C3_4 
ROOT
ATOM      1  C3  <0> d           1.169   1.793   0.001  0.00  0.00     0.054 A 
ATOM      2  C4  <0> d          -0.013   1.076   0.008  0.00  0.00     0.011 A 
ATOM      3  C5  <0> d          -1.230   1.770   0.017  0.00  0.00     0.263 A 
ATOM      4  O1  <0> d          -2.287   1.158   0.019  0.00  0.00    -0.267 OA
ATOM      5  N2  <0> d          -1.227   3.118   0.031  0.00  0.00    -0.244 N 
ATOM      6  H1  <0> d          -2.069   3.600   0.042  0.00  0.00     0.192 HD
ATOM      7  N3  <0> d          -0.022   3.827   0.023  0.00  0.00    -0.182 NA
ATOM      8  C6  <0> d           1.123   3.204   0.009  0.00  0.00     0.047 A 
ATOM      9  H8  <0> d           0.002  -0.004   0.002  0.00  0.00     0.095 H 
ATOM     10  H9  <0> d           2.042   3.771   0.003  0.00  0.00     0.120 H 
ENDROOT
BRANCH   1  11
ATOM     11  N1  <0> d           2.386   1.135  -0.015  0.00  0.00    -0.388 N 
BRANCH  11  12
ATOM     12  C1  <0> d           2.426  -0.330  -0.024  0.00  0.00    -0.019 C 
ATOM     13  H2  <0> d           1.913  -0.702  -0.911  0.00  0.00     0.056 H 
ATOM     14  H3  <0> d           3.463  -0.665  -0.036  0.00  0.00     0.056 H 
ATOM     15  H4  <0> d           1.931  -0.712   0.869  0.00  0.00     0.056 H 
ENDBRANCH  11  12
BRANCH  11  16
ATOM     16  C2  <0> d           3.634   1.901  -0.023  0.00  0.00    -0.019 C 
ATOM     17  H5  <0> d           3.954   2.086   1.003  0.00  0.00     0.056 H 
ATOM     18  H6  <0> d           4.404   1.336  -0.548  0.00  0.00     0.056 H 
ATOM     19  H7  <0> d           3.473   2.853  -0.530  0.00  0.00     0.056 H 
ENDBRANCH  11  16
ENDBRANCH   1  11
TORSDOF 3
