REMARK  2 active torsions:
REMARK  status: ('A' for Active; 'I' for Inactive)
REMARK    1  A    between atoms: C3_3  and  C7_8 
REMARK    2  A    between atoms: C7_8  and  C8_9 
ROOT
ATOM      1  C1  <0> d          -4.025  -0.417  -1.180  0.00  0.00    -0.080 A 
ATOM      2  C2  <0> d          -2.990   0.500  -1.178  0.00  0.00    -0.076 A 
ATOM      3  C3  <0> d          -2.462   0.945   0.019  0.00  0.00    -0.045 A 
ATOM      4  C4  <0> d          -2.975   0.482   1.216  0.00  0.00    -0.039 A 
ATOM      5  C5  <0> d          -4.015  -0.431   1.216  0.00  0.00     0.116 A 
ATOM      6  C6  <0> d          -4.540  -0.881   0.016  0.00  0.00    -0.046 A 
ATOM      7  F1  <0> d          -4.518  -0.884   2.385  0.00  0.00    -0.206 F 
ATOM      8  H1  <0> d          -4.434  -0.768  -2.116  0.00  0.00     0.083 H 
ATOM      9  H2  <0> d          -2.591   0.865  -2.113  0.00  0.00     0.084 H 
ATOM     10  H3  <0> d          -2.564   0.834   2.151  0.00  0.00     0.089 H 
ATOM     11  H4  <0> d          -5.351  -1.594   0.014  0.00  0.00     0.088 H 
ENDROOT
BRANCH   3  12
ATOM     12  C7  <0> d          -1.329   1.940   0.019  0.00  0.00     0.040 C 
ATOM     13  H5  <0> d          -1.391   2.561   0.913  0.00  0.00     0.056 H 
ATOM     14  H6  <0> d          -1.400   2.570  -0.867  0.00  0.00     0.056 H 
BRANCH  12  15
ATOM     15  C8  <0> d          -0.014   1.204   0.009  0.00  0.00     0.176 C 
ATOM     16  O1  <0> d           0.002  -0.004   0.002  0.00  0.00    -0.648 OA
ATOM     17  O2  <0> d           1.139   1.891   0.001  0.00  0.00    -0.648 OA
ENDBRANCH  12  15
ENDBRANCH   3  12
TORSDOF 2
