REMARK  4 active torsions:
REMARK  status: ('A' for Active; 'I' for Inactive)
REMARK    1  A    between atoms: C1_1  and  C2_2 
REMARK    2  A    between atoms: C1_1  and  C4_9 
REMARK    3  A    between atoms: C2_2  and  C3_4 
REMARK    4  A    between atoms: C2_2  and  O1_8 
ROOT
ATOM      1  C2  <0> d          -0.729   1.579   1.267  0.00  0.00     0.138 C 
ATOM      2  H1  <0> d          -1.776   1.277   1.232  0.00  0.00     0.097 H 
ENDROOT
BRANCH   1   3
ATOM      3  C1  <0> d          -0.013   1.086   0.008  0.00  0.00     0.048 C 
ATOM      4  H2  <0> d           0.002  -0.004   0.002  0.00  0.00     0.053 H 
ATOM      5  H3  <0> d           1.010   1.463   0.000  0.00  0.00     0.053 H 
BRANCH   3   6
ATOM      6  C4  <0> d          -0.742   1.585  -1.213  0.00  0.00     0.175 C 
ATOM      7  O2  <0> d          -1.732   2.266  -1.089  0.00  0.00    -0.648 OA
ATOM      8  O3  <0> d          -0.290   1.274  -2.438  0.00  0.00    -0.648 OA
ENDBRANCH   3   6
ENDBRANCH   1   3
BRANCH   1   9
ATOM      9  C3  <0> d          -0.064   0.971   2.503  0.00  0.00     0.413 C 
ATOM     10  F1  <0> d           1.280   1.359   2.549  0.00  0.00    -0.168 F 
ATOM     11  F2  <0> d          -0.719   1.423   3.654  0.00  0.00    -0.168 F 
ATOM     12  F3  <0> d          -0.144  -0.424   2.438  0.00  0.00    -0.168 F 
ENDBRANCH   1   9
BRANCH   1  13
ATOM     13  O1  <0> d          -0.647   3.004   1.334  0.00  0.00    -0.386 OA
ATOM     14  H4  <0> d           0.258   3.345   1.368  0.00  0.00     0.210 HD
ENDBRANCH   1  13
TORSDOF 4
