REMARK  3 active torsions:
REMARK  status: ('A' for Active; 'I' for Inactive)
REMARK    1  A    between atoms: C1_1  and  C2_2 
REMARK    2  A    between atoms: C3_3  and  C7_11 
REMARK    3  A    between atoms: C4_6  and  C6_10 
ROOT
ATOM      1  C2  <0> d          -0.742   1.585  -1.213  0.00  0.00     0.030 A 
ATOM      2  C3  <0> d          -0.890   2.920  -1.437  0.00  0.00     0.044 A 
ATOM      3  N1  <0> d          -1.538   3.345  -2.524  0.00  0.00    -0.240 NA
ATOM      4  H1  <0> d          -2.312   0.570  -3.882  0.00  0.00     0.170 HD
ATOM      5  C4  <0> d          -2.042   2.506  -3.390  0.00  0.00     0.103 A 
ATOM      6  N2  <0> d          -1.930   1.174  -3.226  0.00  0.00    -0.311 N 
ATOM      7  C5  <0> d          -1.280   0.680  -2.151  0.00  0.00     0.254 A 
ATOM      8  O1  <0> d          -1.165  -0.524  -1.991  0.00  0.00    -0.268 OA
ENDROOT
BRANCH   1   9
ATOM      9  C1  <0> d          -0.013   1.086   0.008  0.00  0.00    -0.044 C 
ATOM     10  H2  <0> d           0.002  -0.004   0.002  0.00  0.00     0.033 H 
ATOM     11  H3  <0> d           1.010   1.463   0.000  0.00  0.00     0.033 H 
ATOM     12  H4  <0> d          -0.523   1.437   0.905  0.00  0.00     0.033 H 
ENDBRANCH   1   9
BRANCH   2  13
ATOM     13  C7  <0> d          -0.323   3.917  -0.459  0.00  0.00    -0.035 C 
ATOM     14  H8  <0> d           0.699   4.167  -0.747  0.00  0.00     0.035 H 
ATOM     15  H9  <0> d          -0.933   4.820  -0.465  0.00  0.00     0.035 H 
ATOM     16  H10 <0> d          -0.322   3.485   0.541  0.00  0.00     0.035 H 
ENDBRANCH   2  13
BRANCH   5  17
ATOM     17  C6  <0> d          -2.764   3.042  -4.599  0.00  0.00    -0.021 C 
ATOM     18  H5  <0> d          -2.761   4.131  -4.572  0.00  0.00     0.037 H 
ATOM     19  H6  <0> d          -2.262   2.699  -5.504  0.00  0.00     0.037 H 
ATOM     20  H7  <0> d          -3.793   2.682  -4.597  0.00  0.00     0.037 H 
ENDBRANCH   5  17
TORSDOF 3
