REMARK  2 active torsions:
REMARK  status: ('A' for Active; 'I' for Inactive)
REMARK    1  A    between atoms: C8_8  and  C9_11 
REMARK    2  A    between atoms: C9_11  and  O2_12 
ROOT
ATOM      1  C1  <0> d           2.763   2.201  -3.585  0.00  0.00    -0.082 A 
ATOM      2  C2  <0> d           1.540   2.131  -4.226  0.00  0.00    -0.080 A 
ATOM      3  C3  <0> d           0.384   1.924  -3.502  0.00  0.00    -0.050 A 
ATOM      4  C4  <0> d           0.440   1.784  -2.118  0.00  0.00     0.075 A 
ATOM      5  C5  <0> d           1.675   1.850  -1.486  0.00  0.00    -0.022 A 
ATOM      6  C6  <0> d           2.827   2.060  -2.210  0.00  0.00    -0.074 A 
ATOM      7  C7  <0> d           1.426   1.653  -0.003  0.00  0.00    -0.012 C 
ATOM      8  C8  <0> d          -0.013   1.086   0.008  0.00  0.00     0.069 C 
ATOM      9  H1  <0> d           0.002  -0.004   0.002  0.00  0.00     0.087 H 
ATOM     10  O1  <0> d          -0.565   1.595  -1.218  0.00  0.00    -0.343 OA
ATOM     11  H2  <0> d           3.665   2.366  -4.156  0.00  0.00     0.083 H 
ATOM     12  H3  <0> d           1.489   2.239  -5.300  0.00  0.00     0.083 H 
ATOM     13  H4  <0> d          -0.567   1.871  -4.011  0.00  0.00     0.087 H 
ATOM     14  H5  <0> d           3.780   2.114  -1.706  0.00  0.00     0.084 H 
ATOM     15  H6  <0> d           1.474   2.604   0.529  0.00  0.00     0.044 H 
ATOM     16  H7  <0> d           2.131   0.937   0.419  0.00  0.00     0.044 H 
ENDROOT
BRANCH   8  17
ATOM     17  C9  <0> d          -0.793   1.609   1.216  0.00  0.00     0.041 C 
ATOM     18  H8  <0> d          -0.265   1.343   2.132  0.00  0.00     0.077 H 
ATOM     19  H9  <0> d          -0.882   2.693   1.149  0.00  0.00     0.077 H 
BRANCH  17  20
ATOM     20  O2  <0> d          -2.096   1.023   1.231  0.00  0.00    -0.398 OA
ATOM     21  H10 <0> d          -2.648   1.310   1.972  0.00  0.00     0.209 HD
ENDBRANCH  17  20
ENDBRANCH   8  17
TORSDOF 2
