REMARK  9 active torsions:
REMARK  status: ('A' for Active; 'I' for Inactive)
REMARK    1  A    between atoms: C1_1  and  C2_2 
REMARK    2  A    between atoms: C2_2  and  C3_3 
REMARK    3  A    between atoms: C3_3  and  C4_4 
REMARK    4  A    between atoms: C4_4  and  C5_5 
REMARK    5  A    between atoms: C5_5  and  C6_6 
REMARK    6  A    between atoms: C6_6  and  C7_7 
REMARK    7  A    between atoms: C6_6  and  C8_8 
REMARK    8  A    between atoms: C6_6  and  O1_10 
REMARK    9  A    between atoms: C8_8  and  C9_9 
ROOT
ATOM      1  C5  <0> d           0.718  -0.497  -1.257  0.00  0.00    -0.037 C 
ATOM      2  H10 <0> d           0.733  -1.587  -1.263  0.00  0.00     0.037 H 
ATOM      3  H11 <0> d           0.191  -0.136  -2.140  0.00  0.00     0.037 H 
ENDROOT
BRANCH   1   4
ATOM      4  C4  <0> d           2.154   0.032  -1.268  0.00  0.00    -0.062 C 
ATOM      5  H8  <0> d           2.139   1.122  -1.262  0.00  0.00     0.033 H 
ATOM      6  H9  <0> d           2.681  -0.329  -0.385  0.00  0.00     0.033 H 
BRANCH   4   7
ATOM      7  C3  <0> d           2.870  -0.461  -2.526  0.00  0.00    -0.065 C 
ATOM      8  H6  <0> d           2.885  -1.551  -2.532  0.00  0.00     0.033 H 
ATOM      9  H7  <0> d           2.343  -0.100  -3.409  0.00  0.00     0.033 H 
BRANCH   7  10
ATOM     10  C2  <0> d           4.305   0.068  -2.537  0.00  0.00    -0.069 C 
ATOM     11  H4  <0> d           4.290   1.158  -2.531  0.00  0.00     0.032 H 
ATOM     12  H5  <0> d           4.832  -0.293  -1.654  0.00  0.00     0.032 H 
BRANCH  10  13
ATOM     13  C1  <0> d           5.021  -0.425  -3.796  0.00  0.00    -0.077 C 
ATOM     14  H1  <0> d           5.036  -1.515  -3.802  0.00  0.00     0.027 H 
ATOM     15  H2  <0> d           4.494  -0.064  -4.679  0.00  0.00     0.027 H 
ATOM     16  H3  <0> d           6.044  -0.048  -3.804  0.00  0.00     0.027 H 
ENDBRANCH  10  13
ENDBRANCH   7  10
ENDBRANCH   4   7
ENDBRANCH   1   4
BRANCH   1  17
ATOM     17  C6  <0> d           0.002  -0.004   0.002  0.00  0.00     0.054 C 
BRANCH  17  18
ATOM     18  C7  <0> d          -0.019   1.526   0.010  0.00  0.00    -0.048 C 
ATOM     19  H12 <0> d           1.004   1.903   0.003  0.00  0.00     0.031 H 
ATOM     20  H13 <0> d          -0.546   1.887  -0.873  0.00  0.00     0.031 H 
ATOM     21  H14 <0> d          -0.529   1.877   0.907  0.00  0.00     0.031 H 
ENDBRANCH  17  18
BRANCH  17  22
ATOM     22  C8  <0> d          -1.433  -0.534   0.013  0.00  0.00    -0.040 C 
ATOM     23  H15 <0> d          -1.933  -0.247  -0.912  0.00  0.00     0.036 H 
ATOM     24  H16 <0> d          -1.419  -1.620   0.097  0.00  0.00     0.036 H 
BRANCH  22  25
ATOM     25  C9  <0> d          -2.187   0.060   1.205  0.00  0.00    -0.074 C 
ATOM     26  H17 <0> d          -1.687  -0.227   2.130  0.00  0.00     0.027 H 
ATOM     27  H18 <0> d          -2.201   1.146   1.121  0.00  0.00     0.027 H 
ATOM     28  H19 <0> d          -3.209  -0.318   1.213  0.00  0.00     0.027 H 
ENDBRANCH  22  25
ENDBRANCH  17  22
BRANCH  17  29
ATOM     29  O1  <0> d           0.693  -0.477   1.160  0.00  0.00    -0.390 OA
ATOM     30  H20 <0> d           0.745  -1.441   1.220  0.00  0.00     0.210 HD
ENDBRANCH  17  29
ENDBRANCH   1  17
TORSDOF 9
