REMARK  5 active torsions:
REMARK  status: ('A' for Active; 'I' for Inactive)
REMARK    1  A    between atoms: C1_1  and  C2_2 
REMARK    2  A    between atoms: C2_2  and  C3_4 
REMARK    3  A    between atoms: C2_2  and  N1_10 
REMARK    4  A    between atoms: N1_10  and  C9_11 
REMARK    5  A    between atoms: C9_11  and  C10_12 
ROOT
ATOM      1  C10 <0> d           2.974   5.899   2.278  0.00  0.00    -0.087 C 
ATOM      2  C11 <0> d           3.839   6.272   2.979  0.00  0.00    -0.152 C 
ATOM      3  H13 <0> d           4.649   6.621   3.636  0.00  0.00     0.166 H 
ENDROOT
BRANCH   1   4
ATOM      4  C9  <0> d           1.890   5.432   1.399  0.00  0.00     0.165 C 
ATOM      5  H11 <0> d           1.778   6.127   0.554  0.00  0.00     0.099 H 
ATOM      6  H12 <0> d           0.949   5.393   1.968  0.00  0.00     0.099 H 
BRANCH   4   7
ATOM      7  N1  <0> d           2.213   4.092   0.893  0.00  0.00     0.102 N 
ATOM      8  H10 <0> d           2.330   3.410   1.748  0.00  0.00     0.317 HD
BRANCH   7   9
ATOM      9  C2  <0> d           1.151   3.592   0.010  0.00  0.00     0.155 C 
ATOM     10  H1  <0> d           0.189   3.949   0.409  0.00  0.00     0.095 H 
BRANCH   9  11
ATOM     11  C1  <0> d           1.381   4.113  -1.410  0.00  0.00    -0.043 C 
ATOM     12  H2  <0> d           1.366   5.213  -1.405  0.00  0.00     0.030 H 
ATOM     13  H3  <0> d           0.585   3.739  -2.071  0.00  0.00     0.030 H 
ATOM     14  H4  <0> d           2.357   3.761  -1.776  0.00  0.00     0.030 H 
ENDBRANCH   9  11
BRANCH   9  15
ATOM     15  C3  <0> d           1.171   2.086   0.002  0.00  0.00    -0.026 A 
ATOM     16  C8  <0> d           2.377   1.411  -0.014  0.00  0.00    -0.075 A 
ATOM     17  C7  <0> d           2.396   0.029  -0.021  0.00  0.00    -0.082 A 
ATOM     18  H9  <0> d           3.305   1.963  -0.019  0.00  0.00     0.084 H 
ATOM     19  C6  <0> d           1.208  -0.679  -0.014  0.00  0.00    -0.083 A 
ATOM     20  H8  <0> d           3.339  -0.499  -0.033  0.00  0.00     0.083 H 
ATOM     21  C5  <0> d           0.002  -0.004   0.002  0.00  0.00    -0.082 A 
ATOM     22  H7  <0> d           1.223  -1.759  -0.020  0.00  0.00     0.083 H 
ATOM     23  C4  <0> d          -0.017   1.378   0.010  0.00  0.00    -0.075 A 
ATOM     24  H6  <0> d          -0.926  -0.557   0.008  0.00  0.00     0.083 H 
ATOM     25  H5  <0> d          -0.959   1.905   0.017  0.00  0.00     0.084 H 
ENDBRANCH   9  15
ENDBRANCH   7   9
ENDBRANCH   4   7
ENDBRANCH   1   4
TORSDOF 5
