REMARK  4 active torsions:
REMARK  status: ('A' for Active; 'I' for Inactive)
REMARK    1  A    between atoms: C1_1  and  N1_2 
REMARK    2  A    between atoms: N1_2  and  C2_3 
REMARK       I    between atoms: N1_2  and  C3_4 
REMARK    3  A    between atoms: C3_4  and  C4_6 
REMARK    4  A    between atoms: C5_10  and  N5_12 
ROOT
ATOM      1  N1  <0> d           0.038  -0.130  -0.098  0.00  0.00    -0.354 N 
ATOM      2  C3  <0> d          -0.199  -0.537  -1.361  0.00  0.00     0.293 C 
ATOM      3  O1  <0> d          -0.160   0.264  -2.274  0.00  0.00    -0.264 OA
ENDROOT
BRANCH   2   4
ATOM      4  C4  <0> d          -0.506  -1.957  -1.635  0.00  0.00     0.255 A 
ATOM      5  N4  <0> d          -0.641  -2.506  -2.853  0.00  0.00    -0.036 NA
ATOM      6  C5  <0> d          -0.910  -3.785  -2.733  0.00  0.00     0.716 A 
ATOM      7  N3  <0> d          -0.960  -4.083  -1.415  0.00  0.00    -0.106 N 
ATOM      8  N2  <0> d          -0.696  -2.888  -0.725  0.00  0.00    -0.133 NA
ATOM      9  H1  <0> d          -1.142  -4.951  -1.022  0.00  0.00     0.208 HD
BRANCH   6  10
ATOM     10  N5  <0> d          -1.111  -4.673  -3.774  0.00  0.00    -0.231 N 
ATOM     11  H8  <0> d          -1.309  -5.604  -3.586  0.00  0.00     0.174 HD
ATOM     12  H9  <0> d          -1.055  -4.365  -4.692  0.00  0.00     0.174 HD
ENDBRANCH   6  10
ENDBRANCH   2   4
BRANCH   1  13
ATOM     13  C1  <0> d           0.226   1.294   0.190  0.00  0.00    -0.016 C 
ATOM     14  H2  <0> d           1.283   1.545   0.105  0.00  0.00     0.056 H 
ATOM     15  H3  <0> d          -0.347   1.887  -0.522  0.00  0.00     0.056 H 
ATOM     16  H4  <0> d          -0.118   1.508   1.202  0.00  0.00     0.056 H 
ENDBRANCH   1  13
BRANCH   1  17
ATOM     17  C2  <0> d           0.107  -1.112   0.987  0.00  0.00    -0.016 C 
ATOM     18  H5  <0> d          -0.898  -1.324   1.350  0.00  0.00     0.056 H 
ATOM     19  H6  <0> d           0.561  -2.031   0.617  0.00  0.00     0.056 H 
ATOM     20  H7  <0> d           0.711  -0.712   1.802  0.00  0.00     0.056 H 
ENDBRANCH   1  17
TORSDOF 4
