REMARK  2 active torsions:
REMARK  status: ('A' for Active; 'I' for Inactive)
REMARK    1  A    between atoms: C1_1  and  C2_2 
REMARK    2  A    between atoms: C2_2  and  C3_3 
ROOT
ATOM      1  C3  <0> d           1.106   3.179   0.008  0.00  0.00    -0.041 A 
ATOM      2  C4  <0> d           1.173   1.794   0.001  0.00  0.00    -0.074 A 
ATOM      3  C5  <0> d          -0.013   1.076   0.008  0.00  0.00    -0.066 A 
ATOM      4  C6  <0> d          -1.214   1.759   0.017  0.00  0.00     0.002 A 
ATOM      5  N1  <0> d          -1.240   3.078   0.030  0.00  0.00    -0.273 NA
ATOM      6  C7  <0> d          -0.132   3.793   0.023  0.00  0.00     0.008 A 
ATOM      7  H6  <0> d           2.127   1.287  -0.011  0.00  0.00     0.084 H 
ATOM      8  H7  <0> d           0.002  -0.004   0.002  0.00  0.00     0.085 H 
ATOM      9  H8  <0> d          -2.142   1.207   0.019  0.00  0.00     0.114 H 
ATOM     10  H9  <0> d          -0.193   4.871   0.029  0.00  0.00     0.115 H 
ENDROOT
BRANCH   1  11
ATOM     11  C2  <0> d           2.367   4.004   0.001  0.00  0.00    -0.043 C 
ATOM     12  H4  <0> d           2.188   4.945   0.521  0.00  0.00     0.039 H 
ATOM     13  H5  <0> d           3.163   3.456   0.505  0.00  0.00     0.039 H 
BRANCH  11  14
ATOM     14  C1  <0> d           2.781   4.291  -1.444  0.00  0.00    -0.073 C 
ATOM     15  H1  <0> d           1.985   4.839  -1.948  0.00  0.00     0.028 H 
ATOM     16  H2  <0> d           3.693   4.887  -1.449  0.00  0.00     0.028 H 
ATOM     17  H3  <0> d           2.959   3.350  -1.964  0.00  0.00     0.028 H 
ENDBRANCH  11  14
ENDBRANCH   1  11
TORSDOF 2
