REMARK  3 active torsions:
REMARK  status: ('A' for Active; 'I' for Inactive)
REMARK    1  A    between atoms: C1_1  and  C2_2 
REMARK    2  A    between atoms: C4_4  and  C6_8 
REMARK    3  A    between atoms: N2_6  and  C5_7 
ROOT
ATOM      1  C2  <0> d           1.971   5.144   0.010  0.00  0.00     0.029 A 
ATOM      2  C3  <0> d           2.407   3.863  -0.000  0.00  0.00    -0.024 A 
ATOM      3  C4  <0> d           1.238   3.066   0.007  0.00  0.00     0.155 A 
ATOM      4  N1  <0> d           0.210   3.891   0.015  0.00  0.00    -0.166 NA
ATOM      5  N2  <0> d           0.621   5.108   0.022  0.00  0.00    -0.278 N 
ATOM      6  H4  <0> d           3.432   3.522  -0.011  0.00  0.00     0.090 H 
ENDROOT
BRANCH   1   7
ATOM      7  C1  <0> d           2.832   6.382   0.008  0.00  0.00    -0.036 C 
ATOM      8  H1  <0> d           3.030   6.684  -1.020  0.00  0.00     0.035 H 
ATOM      9  H2  <0> d           2.313   7.186   0.530  0.00  0.00     0.035 H 
ATOM     10  H3  <0> d           3.775   6.169   0.512  0.00  0.00     0.035 H 
ENDBRANCH   1   7
BRANCH   5  11
ATOM     11  C5  <0> d          -0.249   6.286   0.035  0.00  0.00     0.003 C 
ATOM     12  H5  <0> d          -0.474   6.583  -0.989  0.00  0.00     0.059 H 
ATOM     13  H6  <0> d          -1.176   6.048   0.557  0.00  0.00     0.059 H 
ATOM     14  H7  <0> d           0.256   7.105   0.548  0.00  0.00     0.059 H 
ENDBRANCH   5  11
BRANCH   3  15
ATOM     15  C6  <0> d           1.181   1.591  -0.001  0.00  0.00     0.230 C 
ATOM     16  O1  <0> d           2.209   0.943  -0.014  0.00  0.00    -0.643 OA
ATOM     17  O2  <0> d          -0.011   0.963   0.007  0.00  0.00    -0.643 OA
ENDBRANCH   3  15
TORSDOF 3
