REMARK  1 active torsions:
REMARK  status: ('A' for Active; 'I' for Inactive)
REMARK    1  A    between atoms: C6_6  and  C7_7 
ROOT
ATOM      1  C1  <0> d           0.522   3.639  -1.233  0.00  0.00    -0.050 C 
ATOM      2  C2  <0> d           0.582   5.167  -1.225  0.00  0.00    -0.036 C 
ATOM      3  C3  <0> d           2.043   5.621  -1.237  0.00  0.00     0.079 C 
ATOM      4  C4  <0> d           2.755   5.077   0.003  0.00  0.00    -0.036 C 
ATOM      5  C5  <0> d           2.696   3.548  -0.005  0.00  0.00    -0.050 C 
ATOM      6  C6  <0> d           1.235   3.094   0.007  0.00  0.00     0.031 C 
ATOM      7  F1  <0> d           2.673   5.136  -2.388  0.00  0.00    -0.249 F 
ATOM      8  H1  <0> d           1.018   3.257  -2.138  0.00  0.00     0.034 H 
ATOM      9  H2  <0> d          -0.528   3.312  -1.224  0.00  0.00     0.034 H 
ATOM     10  H3  <0> d           0.069   5.559  -2.116  0.00  0.00     0.037 H 
ATOM     11  H4  <0> d           0.086   5.549  -0.320  0.00  0.00     0.037 H 
ATOM     12  H5  <0> d           2.130   6.715  -1.310  0.00  0.00     0.091 H 
ATOM     13  H6  <0> d           3.806   5.403  -0.005  0.00  0.00     0.037 H 
ATOM     14  H7  <0> d           2.260   5.458   0.908  0.00  0.00     0.037 H 
ATOM     15  H8  <0> d           3.192   3.166  -0.910  0.00  0.00     0.034 H 
ATOM     16  H9  <0> d           3.209   3.157   0.887  0.00  0.00     0.034 H 
ATOM     17  H10 <0> d           0.737   3.461   0.916  0.00  0.00     0.056 H 
ENDROOT
BRANCH   6  18
ATOM     18  C7  <0> d           1.177   1.588  -0.001  0.00  0.00     0.177 C 
ATOM     19  O1  <0> d           2.199   0.944  -0.014  0.00  0.00    -0.648 OA
ATOM     20  O2  <0> d          -0.011   0.963   0.007  0.00  0.00    -0.648 OA
ENDBRANCH   6  18
TORSDOF 1
