REMARK  2 active torsions:
REMARK  status: ('A' for Active; 'I' for Inactive)
REMARK    1  A    between atoms: C1_1  and  C2_2 
REMARK    2  A    between atoms: C4_5  and  C6_9 
ROOT
ATOM      1  C2  <0> d           0.037  -2.679  -0.015  0.00  0.00    -0.004 A 
ATOM      2  C3  <0> d           0.016  -1.962  -1.200  0.00  0.00     0.013 A 
ATOM      3  N1  <0> d          -0.006  -0.639  -1.153  0.00  0.00    -0.245 NA
ATOM      4  C4  <0> d           0.002  -0.004   0.002  0.00  0.00     0.123 A 
ATOM      5  N2  <0> d           0.022  -0.651   1.150  0.00  0.00    -0.221 NA
ATOM      6  C5  <0> d           0.040  -1.976   1.181  0.00  0.00     0.135 A 
ATOM      7 Cl1  <0> d           0.065  -2.820   2.698  0.00  0.00    -0.062 Cl
ATOM      8  H4  <0> d           0.014  -2.475  -2.150  0.00  0.00     0.115 H 
ENDROOT
BRANCH   1   9
ATOM      9  C1  <0> d           0.058  -4.186  -0.025  0.00  0.00    -0.047 C 
ATOM     10  H1  <0> d          -0.965  -4.563  -0.017  0.00  0.00     0.033 H 
ATOM     11  H2  <0> d           0.568  -4.536  -0.922  0.00  0.00     0.033 H 
ATOM     12  H3  <0> d           0.585  -4.547   0.858  0.00  0.00     0.033 H 
ENDBRANCH   1   9
BRANCH   4  13
ATOM     13  C6  <0> d          -0.018   1.503   0.010  0.00  0.00    -0.019 C 
ATOM     14  H5  <0> d           1.004   1.880   0.003  0.00  0.00     0.037 H 
ATOM     15  H6  <0> d          -0.545   1.864  -0.873  0.00  0.00     0.037 H 
ATOM     16  H7  <0> d          -0.529   1.854   0.907  0.00  0.00     0.037 H 
ENDBRANCH   4  13
TORSDOF 2
