REMARK  3 active torsions:
REMARK  status: ('A' for Active; 'I' for Inactive)
REMARK    1  A    between atoms: C3_3  and  N3_11 
REMARK    2  A    between atoms: C4_4  and  N2_10 
REMARK    3  A    between atoms: C6_6  and  C7_7 
REMARK       I    between atoms: C7_7  and  N1_9 
ROOT
ATOM      1  C1  <0> d           1.239  -2.059  -0.021  0.00  0.00    -0.065 A 
ATOM      2  C2  <0> d           1.215  -0.681  -0.013  0.00  0.00    -0.054 A 
ATOM      3  C3  <0> d           0.002  -0.004   0.002  0.00  0.00     0.052 A 
ATOM      4  C4  <0> d          -1.200  -0.719   0.015  0.00  0.00     0.053 A 
ATOM      5  C5  <0> d          -1.181  -2.100   0.003  0.00  0.00    -0.040 A 
ATOM      6  C6  <0> d           0.042  -2.779  -0.013  0.00  0.00     0.034 A 
ATOM      7  H1  <0> d           2.183  -2.583  -0.033  0.00  0.00     0.085 H 
ATOM      8  H2  <0> d           2.142  -0.127  -0.019  0.00  0.00     0.087 H 
ATOM      9  H3  <0> d          -2.108  -2.654   0.009  0.00  0.00     0.088 H 
ENDROOT
BRANCH   6  10
ATOM     10  C7  <0> d           0.067  -4.254  -0.021  0.00  0.00     0.249 C 
ATOM     11  O1  <0> d          -0.976  -4.880  -0.014  0.00  0.00    -0.268 OA
ATOM     12  N1  <0> d           1.245  -4.908  -0.036  0.00  0.00    -0.366 N 
ATOM     13  H4  <0> d           1.264  -6.008  -0.042  0.00  0.00     0.159 HD
ATOM     14  H5  <0> d           2.188  -4.342  -0.043  0.00  0.00     0.159 HD
ENDBRANCH   6  10
BRANCH   4  15
ATOM     15  N2  <0> d          -2.421  -0.034   0.037  0.00  0.00    -0.397 N 
ATOM     16  H6  <0> d          -3.366  -0.597   0.047  0.00  0.00     0.156 HD
ATOM     17  H7  <0> d          -2.436   1.065   0.043  0.00  0.00     0.156 HD
ENDBRANCH   4  15
BRANCH   3  18
ATOM     18  N3  <0> d          -0.017   1.389   0.010  0.00  0.00    -0.397 N 
ATOM     19  H8  <0> d          -0.977   1.926   0.022  0.00  0.00     0.156 HD
ATOM     20  H9  <0> d           0.928   1.952   0.004  0.00  0.00     0.156 HD
ENDBRANCH   3  18
TORSDOF 3
