REMARK  4 active torsions:
REMARK  status: ('A' for Active; 'I' for Inactive)
REMARK    1  A    between atoms: C2_2  and  O4_12 
REMARK    2  A    between atoms: C3_4  and  O3_11 
REMARK    3  A    between atoms: C4_6  and  C5_9 
REMARK    4  A    between atoms: C5_9  and  O2_10 
ROOT
ATOM      1  C1  <0> d           1.528   2.445   1.316  0.00  0.00     0.046 C 
ATOM      2  C2  <0> d           1.427   1.647  -0.003  0.00  0.00     0.083 C 
ATOM      3  H1  <0> d           2.153   0.834  -0.014  0.00  0.00     0.090 H 
ATOM      4  C3  <0> d          -0.013   1.086   0.008  0.00  0.00     0.089 C 
ATOM      5  H2  <0> d           0.002  -0.004   0.002  0.00  0.00     0.091 H 
ATOM      6  C4  <0> d          -0.611   1.612   1.332  0.00  0.00     0.086 C 
ATOM      7  H3  <0> d          -1.161   2.536   1.158  0.00  0.00     0.090 H 
ATOM      8  O1  <0> d           0.532   1.858   2.180  0.00  0.00    -0.378 OA
ATOM      9  H4  <0> d           2.521   2.334   1.751  0.00  0.00     0.078 H 
ATOM     10  H5  <0> d           1.308   3.498   1.140  0.00  0.00     0.078 H 
ENDROOT
BRANCH   6  11
ATOM     11  C5  <0> d          -1.523   0.557   1.960  0.00  0.00     0.043 C 
ATOM     12  H6  <0> d          -2.283   0.258   1.238  0.00  0.00     0.078 H 
ATOM     13  H7  <0> d          -0.931  -0.312   2.246  0.00  0.00     0.078 H 
BRANCH  11  14
ATOM     14  O2  <0> d          -2.156   1.104   3.119  0.00  0.00    -0.398 OA
ATOM     15  H8  <0> d          -2.751   0.488   3.570  0.00  0.00     0.209 HD
ENDBRANCH  11  14
ENDBRANCH   6  11
BRANCH   4  16
ATOM     16  O3  <0> d          -0.752   1.581  -1.110  0.00  0.00    -0.390 OA
ATOM     17  H9  <0> d          -0.400   1.306  -1.968  0.00  0.00     0.210 HD
ENDBRANCH   4  16
BRANCH   2  18
ATOM     18  O4  <0> d           1.621   2.506  -1.128  0.00  0.00    -0.391 OA
ATOM     19  H10 <0> d           2.508   2.886  -1.184  0.00  0.00     0.210 HD
ENDBRANCH   2  18
TORSDOF 4
