REMARK  4 active torsions:
REMARK  status: ('A' for Active; 'I' for Inactive)
REMARK    1  A    between atoms: C1_1  and  C2_2 
REMARK    2  A    between atoms: C2_2  and  C3_3 
REMARK    3  A    between atoms: C4_4  and  C8_10 
REMARK    4  A    between atoms: C6_7  and  C7_9 
ROOT
ATOM      1  C3  <0> d           0.000   1.080   2.488  0.00  0.00     0.063 A 
ATOM      2  C4  <0> d           1.023   1.845   3.054  0.00  0.00     0.080 A 
ATOM      3  N1  <0> d           1.662   1.397   4.132  0.00  0.00    -0.257 NA
ATOM      4  C5  <0> d           1.327   0.235   4.660  0.00  0.00     0.026 A 
ATOM      5  C6  <0> d           0.313  -0.519   4.096  0.00  0.00     0.048 A 
ATOM      6  N2  <0> d          -0.330  -0.078   3.028  0.00  0.00    -0.255 NA
ATOM      7  H6  <0> d           1.845  -0.129   5.535  0.00  0.00     0.117 H 
ENDROOT
BRANCH   1   8
ATOM      8  C2  <0> d          -0.729   1.579   1.267  0.00  0.00    -0.026 C 
ATOM      9  H4  <0> d          -0.744   2.679   1.273  0.00  0.00     0.041 H 
ATOM     10  H5  <0> d          -1.761   1.198   1.275  0.00  0.00     0.041 H 
BRANCH   8  11
ATOM     11  C1  <0> d          -0.013   1.086   0.008  0.00  0.00    -0.071 C 
ATOM     12  H1  <0> d          -0.545   1.450  -0.883  0.00  0.00     0.028 H 
ATOM     13  H2  <0> d           0.002  -0.014   0.002  0.00  0.00     0.028 H 
ATOM     14  H3  <0> d           1.019   1.466   0.000  0.00  0.00     0.028 H 
ENDBRANCH   8  11
ENDBRANCH   1   8
BRANCH   2  15
ATOM     15  C8  <0> d           1.394   3.145   2.458  0.00  0.00    -0.062 C 
ATOM     16  C9  <0> d           2.365   3.868   2.998  0.00  0.00    -0.119 C 
ATOM     17  H11 <0> d           2.641   4.837   2.554  0.00  0.00     0.066 H 
ATOM     18  H12 <0> d           2.895   3.501   3.888  0.00  0.00     0.066 H 
ATOM     19  H10 <0> d           0.864   3.513   1.567  0.00  0.00     0.085 H 
ENDBRANCH   2  15
BRANCH   5  20
ATOM     20  C7  <0> d          -0.064  -1.845   4.704  0.00  0.00    -0.034 C 
ATOM     21  H7  <0> d          -0.883  -2.295   4.123  0.00  0.00     0.035 H 
ATOM     22  H8  <0> d          -0.392  -1.692   5.743  0.00  0.00     0.035 H 
ATOM     23  H9  <0> d           0.807  -2.516   4.690  0.00  0.00     0.035 H 
ENDBRANCH   5  20
TORSDOF 4
