REMARK  7 active torsions:
REMARK  status: ('A' for Active; 'I' for Inactive)
REMARK    1  A    between atoms: C1_1  and  C2_2 
REMARK    2  A    between atoms: C2_2  and  C3_3 
REMARK    3  A    between atoms: C3_3  and  C4_4 
REMARK    4  A    between atoms: C4_4  and  C5_5 
REMARK    5  A    between atoms: C5_5  and  C6_7 
REMARK    6  A    between atoms: C5_5  and  C7_8 
REMARK    7  A    between atoms: C7_8  and  O1_9 
ROOT
ATOM      1  C4  <0> d           2.530   3.725   0.124  0.00  0.00    -0.060 C 
ATOM      2  H9  <0> d           3.040   3.331   1.002  0.00  0.00     0.033 H 
ATOM      3  H10 <0> d           3.112   3.495  -0.769  0.00  0.00     0.033 H 
ENDROOT
BRANCH   1   4
ATOM      4  C3  <0> d           2.381   5.242   0.259  0.00  0.00    -0.065 C 
ATOM      5  H7  <0> d           1.871   5.637  -0.620  0.00  0.00     0.033 H 
ATOM      6  H8  <0> d           1.798   5.472   1.151  0.00  0.00     0.033 H 
BRANCH   4   7
ATOM      7  C2  <0> d           3.766   5.882   0.375  0.00  0.00    -0.069 C 
ATOM      8  H5  <0> d           4.276   5.487   1.253  0.00  0.00     0.032 H 
ATOM      9  H6  <0> d           4.348   5.652  -0.518  0.00  0.00     0.032 H 
BRANCH   7  10
ATOM     10  C1  <0> d           3.617   7.399   0.509  0.00  0.00    -0.077 C 
ATOM     11  H2  <0> d           3.107   7.793  -0.369  0.00  0.00     0.027 H 
ATOM     12  H3  <0> d           3.034   7.629   1.402  0.00  0.00     0.027 H 
ATOM     13  H4  <0> d           4.603   7.855   0.592  0.00  0.00     0.027 H 
ENDBRANCH   7  10
ENDBRANCH   4   7
ENDBRANCH   1   4
BRANCH   1  14
ATOM     14  C5  <0> d           1.145   3.085   0.008  0.00  0.00    -0.037 C 
ATOM     15  H1  <0> d           0.532   3.388   0.857  0.00  0.00     0.042 H 
BRANCH  14  16
ATOM     16  C6  <0> d           0.478   3.544  -1.291  0.00  0.00    -0.071 C 
ATOM     17  H11 <0> d          -0.508   3.088  -1.373  0.00  0.00     0.028 H 
ATOM     18  H12 <0> d           0.378   4.629  -1.284  0.00  0.00     0.028 H 
ATOM     19  H13 <0> d           1.091   3.241  -2.140  0.00  0.00     0.028 H 
ENDBRANCH  14  16
BRANCH  14  20
ATOM     20  C7  <0> d           1.286   1.562  -0.002  0.00  0.00     0.020 C 
ATOM     21  H14 <0> d           1.840   1.243   0.881  0.00  0.00     0.074 H 
ATOM     22  H15 <0> d           1.823   1.252  -0.899  0.00  0.00     0.074 H 
BRANCH  20  23
ATOM     23  O1  <0> d          -0.011   0.963   0.007  0.00  0.00    -0.400 OA
ATOM     24  H16 <0> d           0.002  -0.004   0.002  0.00  0.00     0.209 HD
ENDBRANCH  20  23
ENDBRANCH  14  20
ENDBRANCH   1  14
TORSDOF 7
