REMARK  2 active torsions:
REMARK  status: ('A' for Active; 'I' for Inactive)
REMARK    1  A    between atoms: C1_1  and  C2_2 
REMARK    2  A    between atoms: C4_5  and  O1_8 
ROOT
ATOM      1  C2  <0> d          -0.718   1.572   1.248  0.00  0.00     0.121 A 
ATOM      2  N1  <0> d          -2.020   1.773   1.206  0.00  0.00    -0.243 NA
ATOM      3  C3  <0> d          -2.676   2.195   2.275  0.00  0.00     0.037 A 
ATOM      4  C4  <0> d          -1.970   2.436   3.449  0.00  0.00     0.100 A 
ATOM      5  C5  <0> d          -0.597   2.216   3.449  0.00  0.00     0.037 A 
ATOM      6  N2  <0> d          -0.015   1.789   2.341  0.00  0.00    -0.243 NA
ATOM      7  H4  <0> d          -3.744   2.353   2.235  0.00  0.00     0.119 H 
ATOM      8  H5  <0> d          -0.014   2.392   4.341  0.00  0.00     0.119 H 
ENDROOT
BRANCH   1   9
ATOM      9  C1  <0> d          -0.013   1.086   0.008  0.00  0.00    -0.020 C 
ATOM     10  H1  <0> d           0.002  -0.004   0.002  0.00  0.00     0.037 H 
ATOM     11  H2  <0> d           1.010   1.463   0.000  0.00  0.00     0.037 H 
ATOM     12  H3  <0> d          -0.540   1.447  -0.875  0.00  0.00     0.037 H 
ENDBRANCH   1   9
BRANCH   4  13
ATOM     13  O1  <0> d          -2.607   2.874   4.567  0.00  0.00    -0.358 OA
ATOM     14  H6  <0> d          -2.657   3.837   4.639  0.00  0.00     0.217 HD
ENDBRANCH   4  13
TORSDOF 2
