REMARK  6 active torsions:
REMARK  status: ('A' for Active; 'I' for Inactive)
REMARK    1  A    between atoms: C1_1  and  C2_2 
REMARK    2  A    between atoms: C2_2  and  C3_4 
REMARK    3  A    between atoms: C2_2  and  C4_6 
REMARK    4  A    between atoms: C3_4  and  O1_5 
REMARK    5  A    between atoms: C4_6  and  O3_8 
REMARK    6  A    between atoms: O3_8  and  C5_9 
ROOT
ATOM      1  C2  <0> d          -0.729   1.579   1.267  0.00  0.00     0.047 C 
ATOM      2  H1  <0> d          -1.776   1.277   1.232  0.00  0.00     0.058 H 
ENDROOT
BRANCH   1   3
ATOM      3  C1  <0> d          -0.641   3.105   1.339  0.00  0.00    -0.062 C 
ATOM      4  H2  <0> d           0.406   3.407   1.374  0.00  0.00     0.028 H 
ATOM      5  H3  <0> d          -1.115   3.538   0.458  0.00  0.00     0.028 H 
ATOM      6  H4  <0> d          -1.151   3.457   2.235  0.00  0.00     0.028 H 
ENDBRANCH   1   3
BRANCH   1   7
ATOM      7  C3  <0> d          -0.013   1.086   0.008  0.00  0.00     0.028 C 
ATOM      8  H5  <0> d           0.002  -0.004   0.002  0.00  0.00     0.075 H 
ATOM      9  H6  <0> d           1.010   1.463   0.000  0.00  0.00     0.075 H 
BRANCH   7  10
ATOM     10  O1  <0> d          -0.704   1.559  -1.150  0.00  0.00    -0.400 OA
ATOM     11  H7  <0> d          -0.304   1.284  -1.986  0.00  0.00     0.209 HD
ENDBRANCH   7  10
ENDBRANCH   1   7
BRANCH   1  12
ATOM     12  C4  <0> d          -0.074   0.981   2.485  0.00  0.00     0.264 C 
ATOM     13  O2  <0> d           0.869   0.235   2.359  0.00  0.00    -0.265 OA
BRANCH  12  14
ATOM     14  O3  <0> d          -0.538   1.275   3.709  0.00  0.00    -0.326 OA
BRANCH  14  15
ATOM     15  C5  <0> d           0.142   0.662   4.837  0.00  0.00     0.013 C 
ATOM     16  H8  <0> d           0.079  -0.423   4.753  0.00  0.00     0.067 H 
ATOM     17  H9  <0> d           1.189   0.966   4.839  0.00  0.00     0.067 H 
ATOM     18  H10 <0> d          -0.332   0.982   5.765  0.00  0.00     0.067 H 
ENDBRANCH  14  15
ENDBRANCH  12  14
ENDBRANCH   1  12
TORSDOF 6
