REMARK  0 active torsions:
REMARK  status: ('A' for Active; 'I' for Inactive)
ROOT
ATOM      1  C1  <0> d           0.002  -0.004   0.002  0.00  0.00    -0.043 A 
ATOM      2  C2  <0> d          -0.017   1.377   0.010  0.00  0.00    -0.052 A 
ATOM      3  C3  <0> d           1.176   2.084   0.002  0.00  0.00     0.063 A 
ATOM      4  C4  <0> d           2.392   1.398  -0.013  0.00  0.00     0.066 A 
ATOM      5  C5  <0> d           2.403   0.012  -0.021  0.00  0.00    -0.018 A 
ATOM      6  C6  <0> d           1.209  -0.686  -0.013  0.00  0.00     0.118 A 
ATOM      7  F1  <0> d           1.218  -2.037  -0.021  0.00  0.00    -0.206 F 
ATOM      8  N1  <0> d           3.398   2.361  -0.018  0.00  0.00    -0.306 N 
ATOM      9  H1  <0> d           4.352   2.186  -0.028  0.00  0.00     0.170 HD
ATOM     10  C7  <0> d           2.821   3.578  -0.006  0.00  0.00     0.325 A 
ATOM     11  O1  <0> d           3.419   4.637  -0.007  0.00  0.00    -0.247 OA
ATOM     12  N2  <0> d           1.481   3.444   0.006  0.00  0.00    -0.307 N 
ATOM     13  H2  <0> d           0.838   4.170   0.016  0.00  0.00     0.170 HD
ATOM     14  H3  <0> d          -0.927  -0.555   0.008  0.00  0.00     0.088 H 
ATOM     15  H4  <0> d          -0.959   1.905   0.017  0.00  0.00     0.087 H 
ATOM     16  H5  <0> d           3.342  -0.522  -0.033  0.00  0.00     0.091 H 
ENDROOT
TORSDOF 0
