REMARK  2 active torsions:
REMARK  status: ('A' for Active; 'I' for Inactive)
REMARK    1  A    between atoms: C1_1  and  C2_2 
REMARK    2  A    between atoms: C6_6  and  N1_8 
ROOT
ATOM      1  C2  <0> d           1.176   1.782   0.000  0.00  0.00    -0.060 A 
ATOM      2  C3  <0> d          -0.013   1.076   0.008  0.00  0.00    -0.077 A 
ATOM      3  C4  <0> d          -1.220   1.749   0.017  0.00  0.00    -0.080 A 
ATOM      4  C5  <0> d          -1.242   3.131   0.030  0.00  0.00    -0.057 A 
ATOM      5  C6  <0> d          -0.050   3.842   0.022  0.00  0.00     0.040 A 
ATOM      6  C7  <0> d           1.161   3.163   0.007  0.00  0.00    -0.051 A 
ATOM      7  H4  <0> d           0.002  -0.004   0.002  0.00  0.00     0.084 H 
ATOM      8  H5  <0> d          -2.147   1.195   0.019  0.00  0.00     0.083 H 
ATOM      9  H6  <0> d          -2.185   3.656   0.041  0.00  0.00     0.086 H 
ATOM     10  H7  <0> d           2.090   3.714   0.000  0.00  0.00     0.087 H 
ENDROOT
BRANCH   5  11
ATOM     11  N1  <0> d          -0.069   5.244   0.029  0.00  0.00    -0.315 N 
ATOM     12  C10 <0> d           1.012   6.067   0.023  0.00  0.00     0.070 A 
ATOM     13  N2  <0> d           0.594   7.303   0.033  0.00  0.00    -0.254 NA
ATOM     14  H10 <0> d           2.045   5.750   0.011  0.00  0.00     0.144 H 
ATOM     15  C9  <0> d          -0.747   7.319   0.046  0.00  0.00     0.019 A 
ATOM     16  C8  <0> d          -1.183   6.044   0.038  0.00  0.00     0.003 A 
ATOM     17  H9  <0> d          -1.370   8.201   0.057  0.00  0.00     0.117 H 
ATOM     18  H8  <0> d          -2.211   5.716   0.041  0.00  0.00     0.114 H 
ENDBRANCH   5  11
BRANCH   1  19
ATOM     19  C1  <0> d           2.490   1.044  -0.016  0.00  0.00    -0.051 C 
ATOM     20  H1  <0> d           2.797   0.872  -1.047  0.00  0.00     0.033 H 
ATOM     21  H2  <0> d           3.248   1.640   0.494  0.00  0.00     0.033 H 
ATOM     22  H3  <0> d           2.376   0.088   0.494  0.00  0.00     0.033 H 
ENDBRANCH   1  19
TORSDOF 2
