REMARK  1 active torsions:
REMARK  status: ('A' for Active; 'I' for Inactive)
REMARK    1  A    between atoms: C3_4  and  S1_6 
ROOT
ATOM      1  C1  <0> d          -0.013   1.086   0.008  0.00  0.00     0.011 A 
ATOM      2  C2  <0> d          -0.796   1.614   1.227  0.00  0.00     0.032 A 
ATOM      3  N1  <0> d          -1.914   2.361   0.625  0.00  0.00    -0.259 NA
ATOM      4  C3  <0> d          -1.842   2.312  -0.655  0.00  0.00     0.238 A 
ATOM      5  N2  <0> d          -0.783   1.602  -1.136  0.00  0.00    -0.362 N 
ATOM      6  H1  <0> d           0.002  -0.004   0.002  0.00  0.00     0.066 H 
ATOM      7  H2  <0> d           1.002   1.484   0.001  0.00  0.00     0.066 H 
ATOM      8  H3  <0> d          -1.169   0.786   1.830  0.00  0.00     0.070 H 
ATOM      9  H4  <0> d          -0.170   2.275   1.827  0.00  0.00     0.070 H 
ATOM     10  H5  <0> d          -0.572   1.461  -2.073  0.00  0.00     0.161 HD
ENDROOT
BRANCH   4  11
ATOM     11  S1  <0> d          -3.017   3.100  -1.706  0.00  0.00     0.173 S 
ATOM     12  O1  <0> d          -3.837   3.903  -0.868  0.00  0.00    -0.589 OA
ATOM     13  O2  <0> d          -2.286   3.639  -2.799  0.00  0.00    -0.589 OA
ATOM     14  O3  <0> d          -3.912   2.010  -2.276  0.00  0.00    -0.589 OA
ENDBRANCH   4  11
TORSDOF 1
