REMARK  2 active torsions:
REMARK  status: ('A' for Active; 'I' for Inactive)
REMARK    1  A    between atoms: C1_1  and  C2_2 
REMARK    2  A    between atoms: C4_4  and  N5_11 
ROOT
ATOM      1  C2  <0> d          -1.222   1.766   0.017  0.00  0.00     0.053 A 
ATOM      2  C3  <0> d          -0.013   1.076   0.008  0.00  0.00    -0.015 A 
ATOM      3  C4  <0> d           1.168   1.793   0.001  0.00  0.00     0.143 A 
ATOM      4  N1  <0> d           1.107   3.157   0.009  0.00  0.00    -0.043 N 
ATOM      5  C5  <0> d          -0.103   3.790   0.024  0.00  0.00     0.752 A 
ATOM      6  N2  <0> d          -1.238   3.082   0.031  0.00  0.00    -0.066 NA
ATOM      7  N3  <0> d           0.138   5.097   0.028  0.00  0.00    -0.052 NA
ATOM      8  C6  <0> d           1.448   5.311   0.017  0.00  0.00     0.126 A 
ATOM      9  N4  <0> d           2.081   4.163   0.005  0.00  0.00    -0.143 NA
ATOM     10  H4  <0> d           0.002  -0.004   0.002  0.00  0.00     0.092 H 
ATOM     11  H5  <0> d           1.920   6.282   0.017  0.00  0.00     0.150 H 
ENDROOT
BRANCH   1  12
ATOM     12  C1  <0> d          -2.521   1.001   0.019  0.00  0.00    -0.035 C 
ATOM     13  H1  <0> d          -2.829   0.811   1.047  0.00  0.00     0.035 H 
ATOM     14  H2  <0> d          -3.288   1.586  -0.488  0.00  0.00     0.035 H 
ATOM     15  H3  <0> d          -2.384   0.053  -0.500  0.00  0.00     0.035 H 
ENDBRANCH   1  12
BRANCH   3  16
ATOM     16  N5  <0> d           2.383   1.145  -0.014  0.00  0.00    -0.383 N 
ATOM     17  H6  <0> d           2.416   0.175  -0.019  0.00  0.00     0.157 HD
ATOM     18  H7  <0> d           3.207   1.657  -0.019  0.00  0.00     0.157 HD
ENDBRANCH   3  16
TORSDOF 2
