REMARK  2 active torsions:
REMARK  status: ('A' for Active; 'I' for Inactive)
REMARK    1  A    between atoms: C1_1  and  C2_2 
REMARK    2  A    between atoms: C2_2  and  C4_6 
ROOT
ATOM      1  C2  <0> d           3.691   2.058  -0.023  0.00  0.00     0.069 C 
ATOM      2  H1  <0> d           4.454   1.419  -0.468  0.00  0.00     0.072 H 
ATOM      3  C3  <0> d           3.567   3.295  -0.811  0.00  0.00     0.070 C 
ATOM      4  N1  <0> d           3.471   4.250  -1.420  0.00  0.00    -0.197 NA
ENDROOT
BRANCH   1   5
ATOM      5  C1  <0> d           4.092   2.406   1.412  0.00  0.00    -0.056 C 
ATOM      6  H2  <0> d           5.048   2.930   1.405  0.00  0.00     0.029 H 
ATOM      7  H3  <0> d           3.330   3.046   1.857  0.00  0.00     0.029 H 
ATOM      8  H4  <0> d           4.184   1.490   1.996  0.00  0.00     0.029 H 
ENDBRANCH   1   5
BRANCH   1   9
ATOM      9  C4  <0> d           2.370   1.334  -0.014  0.00  0.00     0.051 A 
ATOM     10  N2  <0> d           2.350   0.015  -0.021  0.00  0.00    -0.264 NA
ATOM     11  C8  <0> d           1.218  -0.661  -0.013  0.00  0.00     0.003 A 
ATOM     12  C7  <0> d           0.002  -0.004   0.002  0.00  0.00    -0.066 A 
ATOM     13  H8  <0> d           1.241  -1.741  -0.019  0.00  0.00     0.114 H 
ATOM     14  C6  <0> d          -0.017   1.383   0.010  0.00  0.00    -0.080 A 
ATOM     15  H7  <0> d          -0.922  -0.564   0.008  0.00  0.00     0.085 H 
ATOM     16  C5  <0> d           1.193   2.059   0.002  0.00  0.00    -0.058 A 
ATOM     17  H6  <0> d          -0.952   1.923   0.017  0.00  0.00     0.083 H 
ATOM     18  H5  <0> d           1.216   3.139   0.007  0.00  0.00     0.086 H 
ENDBRANCH   1   9
TORSDOF 2
