REMARK  2 active torsions:
REMARK  status: ('A' for Active; 'I' for Inactive)
REMARK    1  A    between atoms: C1_1  and  C2_2 
REMARK    2  A    between atoms: C4_5  and  C8_11 
ROOT
ATOM      1  C2  <0> d          -1.280   2.985   1.164  0.00  0.00    -0.051 C 
ATOM      2  H1  <0> d          -2.175   3.605   1.130  0.00  0.00     0.040 H 
ATOM      3  C3  <0> d          -0.041   3.869   1.006  0.00  0.00    -0.058 C 
ATOM      4  C4  <0> d           1.223   3.019   1.141  0.00  0.00    -0.051 C 
ATOM      5  H2  <0> d           1.210   2.497   2.097  0.00  0.00     0.040 H 
ATOM      6  C5  <0> d           1.274   1.997   0.001  0.00  0.00    -0.007 C 
ATOM      7  C6  <0> d          -0.014   1.203   0.009  0.00  0.00     0.127 C 
ATOM      8  O1  <0> d           0.002  -0.004   0.002  0.00  0.00    -0.298 OA
ATOM      9  C7  <0> d          -1.323   1.961   0.019  0.00  0.00    -0.007 C 
ATOM     10  H6  <0> d          -0.045   4.639   1.778  0.00  0.00     0.034 H 
ATOM     11  H7  <0> d          -0.058   4.341   0.023  0.00  0.00     0.034 H 
ATOM     12  H8  <0> d           2.054   1.386   0.135  0.00  0.00     0.044 H 
ATOM     13  H9  <0> d           1.378   2.516  -0.952  0.00  0.00     0.044 H 
ATOM     14  H10 <0> d          -1.453   2.439  -0.850  0.00  0.00     0.044 H 
ATOM     15  H11 <0> d          -2.148   1.266   0.179  0.00  0.00     0.044 H 
ENDROOT
BRANCH   1  16
ATOM     16  C1  <0> d          -1.216   2.253   2.506  0.00  0.00    -0.072 C 
ATOM     17  H3  <0> d          -1.183   2.981   3.316  0.00  0.00     0.028 H 
ATOM     18  H4  <0> d          -2.098   1.623   2.619  0.00  0.00     0.028 H 
ATOM     19  H5  <0> d          -0.320   1.632   2.539  0.00  0.00     0.028 H 
ENDBRANCH   1  16
BRANCH   4  20
ATOM     20  C8  <0> d           2.455   3.923   1.071  0.00  0.00    -0.072 C 
ATOM     21  H12 <0> d           2.469   4.446   0.114  0.00  0.00     0.028 H 
ATOM     22  H13 <0> d           2.420   4.650   1.882  0.00  0.00     0.028 H 
ATOM     23  H14 <0> d           3.357   3.317   1.166  0.00  0.00     0.028 H 
ENDBRANCH   4  20
TORSDOF 2
