REMARK  2 active torsions:
REMARK  status: ('A' for Active; 'I' for Inactive)
REMARK    1  A    between atoms: C1_1  and  C2_2 
REMARK    2  A    between atoms: C4_4  and  N2_12 
ROOT
ATOM      1  C2  <0> d          -0.991  -0.986   0.007  0.00  0.00    -0.047 A 
ATOM      2  C3  <0> d          -0.641  -2.306  -0.003  0.00  0.00    -0.051 A 
ATOM      3  C4  <0> d           0.701  -2.682  -0.018  0.00  0.00     0.028 A 
ATOM      4  C5  <0> d           1.699  -1.723  -0.023  0.00  0.00    -0.031 A 
ATOM      5  C6  <0> d           1.359  -0.374  -0.013  0.00  0.00     0.045 A 
ATOM      6  C7  <0> d           0.002  -0.004   0.002  0.00  0.00    -0.002 A 
ATOM      7  C8  <0> d          -0.018   1.462   0.010  0.00  0.00    -0.056 A 
ATOM      8  C9  <0> d           1.260   1.872   0.000  0.00  0.00    -0.022 A 
ATOM      9  N1  <0> d           2.098   0.788  -0.014  0.00  0.00    -0.365 N 
ATOM     10  H1  <0> d           3.067   0.833  -0.023  0.00  0.00     0.165 HD
ATOM     11  H5  <0> d          -1.410  -3.064   0.001  0.00  0.00     0.087 H 
ATOM     12  H6  <0> d           2.737  -2.020  -0.034  0.00  0.00     0.090 H 
ATOM     13  H7  <0> d          -0.895   2.092   0.018  0.00  0.00     0.087 H 
ATOM     14  H8  <0> d           1.580   2.903   0.002  0.00  0.00     0.111 H 
ENDROOT
BRANCH   1  15
ATOM     15  C1  <0> d          -2.444  -0.590   0.023  0.00  0.00    -0.050 C 
ATOM     16  H2  <0> d          -2.805  -0.489  -1.000  0.00  0.00     0.033 H 
ATOM     17  H3  <0> d          -3.024  -1.356   0.539  0.00  0.00     0.033 H 
ATOM     18  H4  <0> d          -2.556   0.362   0.543  0.00  0.00     0.033 H 
ENDBRANCH   1  15
BRANCH   3  19
ATOM     19  N2  <0> d           1.042  -4.038  -0.028  0.00  0.00    -0.399 N 
ATOM     20  H9  <0> d           1.975  -4.303  -0.039  0.00  0.00     0.156 HD
ATOM     21  H10 <0> d           0.346  -4.713  -0.025  0.00  0.00     0.156 HD
ENDBRANCH   3  19
TORSDOF 2
