REMARK  4 active torsions:
REMARK  status: ('A' for Active; 'I' for Inactive)
REMARK    1  A    between atoms: C1_1  and  N1_2 
REMARK    2  A    between atoms: N1_2  and  C2_3 
REMARK    3  A    between atoms: C5_7  and  N4_9 
REMARK    4  A    between atoms: N4_9  and  C6_10 
ROOT
ATOM      1  C2  <0> d          -1.227   2.137   0.019  0.00  0.00     0.146 A 
ATOM      2  C3  <0> d          -2.431   1.433   0.015  0.00  0.00     0.018 A 
ATOM      3  C4  <0> d          -3.615   2.151   0.029  0.00  0.00     0.231 A 
ATOM      4  N2  <0> d          -3.569   3.478   0.036  0.00  0.00    -0.033 NA
ATOM      5  C5  <0> d          -2.409   4.118   0.035  0.00  0.00     0.726 A 
ATOM      6  N3  <0> d          -1.256   3.467   0.027  0.00  0.00    -0.045 NA
ATOM      7  F1  <0> d          -4.804   1.509   0.030  0.00  0.00    -0.183 F 
ATOM      8  H5  <0> d          -2.440   0.353   0.005  0.00  0.00     0.096 H 
ENDROOT
BRANCH   1   9
ATOM      9  N1  <0> d          -0.018   1.461   0.010  0.00  0.00    -0.379 N 
ATOM     10  H4  <0> d           0.816   1.957   0.005  0.00  0.00     0.160 HD
BRANCH   9  11
ATOM     11  C1  <0> d           0.002  -0.004   0.002  0.00  0.00    -0.020 C 
ATOM     12  H1  <0> d           1.034  -0.353  -0.010  0.00  0.00     0.056 H 
ATOM     13  H2  <0> d          -0.498  -0.379   0.895  0.00  0.00     0.056 H 
ATOM     14  H3  <0> d          -0.515  -0.370  -0.885  0.00  0.00     0.056 H 
ENDBRANCH   9  11
ENDBRANCH   1   9
BRANCH   5  15
ATOM     15  N4  <0> d          -2.403   5.501   0.043  0.00  0.00    -0.227 N 
ATOM     16  H6  <0> d          -1.561   5.982   0.042  0.00  0.00     0.177 HD
BRANCH  15  17
ATOM     17  C6  <0> d          -3.668   6.240   0.052  0.00  0.00    -0.005 C 
ATOM     18  H7  <0> d          -3.464   7.311   0.057  0.00  0.00     0.057 H 
ATOM     19  H8  <0> d          -4.245   5.984  -0.837  0.00  0.00     0.057 H 
ATOM     20  H9  <0> d          -4.237   5.974   0.944  0.00  0.00     0.057 H 
ENDBRANCH  15  17
ENDBRANCH   5  15
TORSDOF 4
