REMARK  7 active torsions:
REMARK  status: ('A' for Active; 'I' for Inactive)
REMARK    1  A    between atoms: C1_1  and  C2_2 
REMARK    2  A    between atoms: C2_2  and  O2_4 
REMARK    3  A    between atoms: O2_4  and  C3_5 
REMARK    4  A    between atoms: C3_5  and  C4_6 
REMARK    5  A    between atoms: C4_6  and  C5_8 
REMARK    6  A    between atoms: C4_6  and  O4_10 
REMARK    7  A    between atoms: C5_8  and  O3_9 
ROOT
ATOM      1  C3  <0> d          -0.013   1.086   0.008  0.00  0.00     0.054 C 
ATOM      2  H5  <0> d           0.002  -0.004   0.002  0.00  0.00     0.079 H 
ATOM      3  H6  <0> d           1.010   1.463   0.000  0.00  0.00     0.079 H 
ENDROOT
BRANCH   1   4
ATOM      4  O2  <0> d          -0.715   1.567  -1.168  0.00  0.00    -0.319 OA
BRANCH   4   5
ATOM      5  C2  <0> d          -0.211   1.220  -2.363  0.00  0.00     0.254 C 
ATOM      6  O1  <0> d           0.783   0.536  -2.424  0.00  0.00    -0.266 OA
BRANCH   5   7
ATOM      7  C1  <0> d          -0.887   1.682  -3.629  0.00  0.00     0.004 C 
ATOM      8  H2  <0> d          -0.901   2.771  -3.655  0.00  0.00     0.041 H 
ATOM      9  H3  <0> d          -0.339   1.304  -4.492  0.00  0.00     0.041 H 
ATOM     10  H4  <0> d          -1.909   1.304  -3.654  0.00  0.00     0.041 H 
ENDBRANCH   5   7
ENDBRANCH   4   5
ENDBRANCH   1   4
BRANCH   1  11
ATOM     11  C4  <0> d          -0.729   1.579   1.267  0.00  0.00     0.076 C 
ATOM     12  H1  <0> d          -1.776   1.277   1.232  0.00  0.00     0.089 H 
BRANCH  11  13
ATOM     13  C5  <0> d          -0.064   0.971   2.503  0.00  0.00     0.042 C 
ATOM     14  H7  <0> d          -0.047  -0.115   2.410  0.00  0.00     0.078 H 
ATOM     15  H8  <0> d           0.957   1.344   2.587  0.00  0.00     0.078 H 
BRANCH  13  16
ATOM     16  O3  <0> d          -0.802   1.338   3.670  0.00  0.00    -0.398 OA
ATOM     17  H9  <0> d          -0.437   0.987   4.494  0.00  0.00     0.209 HD
ENDBRANCH  13  16
ENDBRANCH  11  13
BRANCH  11  18
ATOM     18  O4  <0> d          -0.647   3.004   1.334  0.00  0.00    -0.391 OA
ATOM     19  H10 <0> d           0.258   3.345   1.368  0.00  0.00     0.210 HD
ENDBRANCH  11  18
ENDBRANCH   1  11
TORSDOF 7
