REMARK  3 active torsions:
REMARK  status: ('A' for Active; 'I' for Inactive)
REMARK    1  A    between atoms: C1_1  and  C2_2 
REMARK    2  A    between atoms: C7_7  and  C8_8 
REMARK    3  A    between atoms: C8_8  and  C9_10 
ROOT
ATOM      1  C9  <0> d          -0.484   0.512   0.088  0.00  0.00     0.074 C 
ATOM      2  C10 <0> d          -1.340   0.825  -1.068  0.00  0.00     0.067 C 
ATOM      3  N1  <0> d          -2.001   1.065  -1.960  0.00  0.00    -0.197 NA
ATOM      4  H8  <0> d          -0.465  -0.477   0.231  0.00  0.00     0.067 H 
ATOM      5  H9  <0> d           0.528   0.871  -0.102  0.00  0.00     0.067 H 
ENDROOT
BRANCH   1   6
ATOM      6  C8  <0> d          -1.034   1.188   1.317  0.00  0.00     0.172 C 
ATOM      7  O1  <0> d          -2.039   1.862   1.241  0.00  0.00    -0.291 OA
BRANCH   6   8
ATOM      8  C7  <0> d          -0.351   1.029   2.612  0.00  0.00     0.017 A 
ATOM      9  C2  <0> d          -0.786   1.750   3.728  0.00  0.00    -0.048 A 
ATOM     10  C3  <0> d          -0.141   1.595   4.938  0.00  0.00    -0.076 A 
ATOM     11  C4  <0> d           0.933   0.731   5.048  0.00  0.00    -0.082 A 
ATOM     12  H4  <0> d          -0.477   2.151   5.801  0.00  0.00     0.084 H 
ATOM     13  C5  <0> d           1.370   0.014   3.947  0.00  0.00    -0.082 A 
ATOM     14  H5  <0> d           1.434   0.614   5.997  0.00  0.00     0.083 H 
ATOM     15  C6  <0> d           0.732   0.153   2.732  0.00  0.00    -0.069 A 
ATOM     16  H6  <0> d           2.209  -0.659   4.040  0.00  0.00     0.083 H 
ATOM     17  H7  <0> d           1.071  -0.410   1.875  0.00  0.00     0.085 H 
BRANCH   9  18
ATOM     18  C1  <0> d          -1.957   2.691   3.611  0.00  0.00    -0.050 C 
ATOM     19  H1  <0> d          -2.886   2.130   3.712  0.00  0.00     0.033 H 
ATOM     20  H2  <0> d          -1.899   3.442   4.399  0.00  0.00     0.033 H 
ATOM     21  H3  <0> d          -1.932   3.182   2.638  0.00  0.00     0.033 H 
ENDBRANCH   9  18
ENDBRANCH   6   8
ENDBRANCH   1   6
TORSDOF 3
