REMARK  2 active torsions:
REMARK  status: ('A' for Active; 'I' for Inactive)
REMARK    1  A    between atoms: C1_1  and  C2_2 
REMARK    2  A    between atoms: C2_2  and  S1_3 
ROOT
ATOM      1  C1  <0> d          -0.018   1.468   0.010  0.00  0.00     0.029 C 
ATOM      2  C3  <0> d           0.002  -0.004   0.002  0.00  0.00     0.060 C 
ATOM      3  N1  <0> d           0.018  -1.140  -0.004  0.00  0.00    -0.197 NA
ATOM      4  H1  <0> d           1.005   1.845   0.002  0.00  0.00     0.056 H 
ATOM      5  H2  <0> d          -0.545   1.829  -0.873  0.00  0.00     0.056 H 
ENDROOT
BRANCH   1   6
ATOM      6  C2  <0> d          -0.734   1.961   1.269  0.00  0.00     0.056 C 
ATOM      7  H3  <0> d          -1.757   1.584   1.277  0.00  0.00     0.061 H 
ATOM      8  H4  <0> d          -0.207   1.600   2.152  0.00  0.00     0.061 H 
BRANCH   6   9
ATOM      9  S1  <0> d          -0.759   3.775   1.279  0.00  0.00     0.102 S 
ATOM     10  O1  <0> d           0.558   4.281   1.449  0.00  0.00    -0.595 OA
ATOM     11  O2  <0> d          -1.592   4.259   0.234  0.00  0.00    -0.595 OA
ATOM     12  O3  <0> d          -1.487   4.149   2.562  0.00  0.00    -0.595 OA
ENDBRANCH   6   9
ENDBRANCH   1   6
TORSDOF 2
