REMARK  1 active torsions:
REMARK  status: ('A' for Active; 'I' for Inactive)
REMARK    1  A    between atoms: C1_1  and  C2_2 
ROOT
ATOM      1  C2  <0> d           0.002  -0.004   0.002  0.00  0.00     0.070 A 
ATOM      2  C3  <0> d           0.008  -0.822  -1.143  0.00  0.00     0.105 A 
ATOM      3  C4  <0> d           0.029  -2.155  -0.704  0.00  0.00     0.163 A 
ATOM      4  N1  <0> d           0.035  -2.115   0.654  0.00  0.00    -0.260 N 
ATOM      5  H1  <0> d           0.048  -2.885   1.245  0.00  0.00     0.191 HD
ATOM      6  N2  <0> d           0.023  -0.773   1.055  0.00  0.00    -0.177 NA
ATOM      7  N3  <0> d           0.038  -3.143  -1.612  0.00  0.00    -0.224 NA
ATOM      8  C5  <0> d           0.029  -2.902  -2.890  0.00  0.00     0.069 A 
ATOM      9  N4  <0> d           0.010  -1.647  -3.406  0.00  0.00    -0.317 N 
ATOM     10  C6  <0> d          -0.002  -0.572  -2.585  0.00  0.00     0.262 A 
ATOM     11  O1  <0> d          -0.020   0.563  -3.029  0.00  0.00    -0.267 OA
ATOM     12  H5  <0> d           0.038  -3.739  -3.572  0.00  0.00     0.143 H 
ATOM     13  H6  <0> d           0.005  -1.521  -4.368  0.00  0.00     0.170 HD
ENDROOT
BRANCH   1  14
ATOM     14  C1  <0> d          -0.018   1.503   0.010  0.00  0.00    -0.033 C 
ATOM     15  H2  <0> d           1.004   1.880   0.003  0.00  0.00     0.035 H 
ATOM     16  H3  <0> d          -0.545   1.864  -0.873  0.00  0.00     0.035 H 
ATOM     17  H4  <0> d          -0.529   1.854   0.907  0.00  0.00     0.035 H 
ENDBRANCH   1  14
TORSDOF 1
