REMARK  1 active torsions:
REMARK  status: ('A' for Active; 'I' for Inactive)
REMARK    1  A    between atoms: C7_8  and  O1_13 
ROOT
ATOM      1  C1  <0> d           1.470   1.951  -0.002  0.00  0.00    -0.064 C 
ATOM      2  C2  <0> d          -0.019   1.521   0.010  0.00  0.00    -0.061 C 
ATOM      3  C3  <0> d           0.002  -0.004   0.002  0.00  0.00    -0.048 C 
ATOM      4  H1  <0> d           0.037  -0.367  -1.025  0.00  0.00     0.040 H 
ATOM      5  C4  <0> d          -1.114  -0.701   0.754  0.00  0.00    -0.061 C 
ATOM      6  C5  <0> d          -0.895  -2.203   0.642  0.00  0.00    -0.062 C 
ATOM      7  C6  <0> d           0.478  -2.611   1.170  0.00  0.00    -0.041 C 
ATOM      8  C7  <0> d           1.603  -1.821   0.482  0.00  0.00     0.039 C 
ATOM      9  H2  <0> d           1.602  -2.026  -0.588  0.00  0.00     0.083 H 
ATOM     10  C8  <0> d           1.332  -0.347   0.726  0.00  0.00    -0.026 C 
ATOM     11  H3  <0> d           1.248  -0.148   1.794  0.00  0.00     0.044 H 
ATOM     12  C9  <0> d           2.304   0.643   0.073  0.00  0.00    -0.059 C 
ATOM     13  H4  <0> d           1.697   2.487  -0.923  0.00  0.00     0.033 H 
ATOM     14  H5  <0> d           1.684   2.581   0.862  0.00  0.00     0.033 H 
ATOM     15  H6  <0> d          -0.527   1.897  -0.877  0.00  0.00     0.033 H 
ATOM     16  H7  <0> d          -0.510   1.887   0.912  0.00  0.00     0.033 H 
ATOM     17  H8  <0> d          -1.087  -0.417   1.806  0.00  0.00     0.033 H 
ATOM     18  H9  <0> d          -2.078  -0.432   0.322  0.00  0.00     0.033 H 
ATOM     19  H10 <0> d          -0.973  -2.490  -0.406  0.00  0.00     0.033 H 
ATOM     20  H11 <0> d          -1.665  -2.722   1.212  0.00  0.00     0.033 H 
ATOM     21  H12 <0> d           0.627  -3.675   0.988  0.00  0.00     0.036 H 
ATOM     22  H13 <0> d           0.516  -2.425   2.243  0.00  0.00     0.036 H 
ATOM     23  H14 <0> d           3.187   0.783   0.696  0.00  0.00     0.033 H 
ATOM     24  H15 <0> d           2.587   0.305  -0.924  0.00  0.00     0.033 H 
ENDROOT
BRANCH   8  25
ATOM     25  O1  <0> d           2.866  -2.183   1.046  0.00  0.00    -0.395 OA
ATOM     26  H16 <0> d           3.098  -3.113   0.924  0.00  0.00     0.210 HD
ENDBRANCH   8  25
TORSDOF 1
