REMARK  7 active torsions:
REMARK  status: ('A' for Active; 'I' for Inactive)
REMARK    1  A    between atoms: C1_1  and  C2_2 
REMARK    2  A    between atoms: C1_1  and  C3_4 
REMARK    3  A    between atoms: C2_2  and  O1_3 
REMARK    4  A    between atoms: C3_4  and  C4_5 
REMARK    5  A    between atoms: C3_4  and  O3_8 
REMARK    6  A    between atoms: C4_5  and  C5_6 
REMARK    7  A    between atoms: C5_6  and  O2_7 
ROOT
ATOM      1  C3  <0> d           2.534   3.726  -0.002  0.00  0.00     0.039 C 
ATOM      2  H6  <0> d           3.171   3.311   0.793  0.00  0.00     0.083 H 
ENDROOT
BRANCH   1   3
ATOM      3  C1  <0> d           1.145   3.085   0.008  0.00  0.00    -0.021 C 
ATOM      4  H1  <0> d           0.586   3.407  -0.883  0.00  0.00     0.039 H 
ATOM      5  H2  <0> d           0.603   3.397   0.913  0.00  0.00     0.039 H 
BRANCH   3   6
ATOM      6  C2  <0> d           1.286   1.562  -0.002  0.00  0.00     0.019 C 
ATOM      7  H3  <0> d           1.828   1.250  -0.907  0.00  0.00     0.074 H 
ATOM      8  H4  <0> d           1.845   1.240   0.889  0.00  0.00     0.074 H 
BRANCH   6   9
ATOM      9  O1  <0> d          -0.011   0.963   0.007  0.00  0.00    -0.401 OA
ATOM     10  H5  <0> d          -0.111  -0.133   0.002  0.00  0.00     0.209 HD
ENDBRANCH   6   9
ENDBRANCH   3   6
ENDBRANCH   1   3
BRANCH   1  11
ATOM     11  C4  <0> d           2.396   5.244   0.133  0.00  0.00    -0.021 C 
ATOM     12  H7  <0> d           1.884   5.646  -0.753  0.00  0.00     0.039 H 
ATOM     13  H8  <0> d           1.810   5.480   1.034  0.00  0.00     0.039 H 
BRANCH  11  14
ATOM     14  C5  <0> d           3.785   5.874   0.249  0.00  0.00     0.019 C 
ATOM     15  H9  <0> d           4.298   5.472   1.135  0.00  0.00     0.074 H 
ATOM     16  H10 <0> d           4.371   5.638  -0.652  0.00  0.00     0.074 H 
BRANCH  14  17
ATOM     17  O2  <0> d           3.657   7.292   0.375  0.00  0.00    -0.401 OA
ATOM     18  H11 <0> d           4.555   7.920   0.470  0.00  0.00     0.209 HD
ENDBRANCH  14  17
ENDBRANCH  11  14
ENDBRANCH   1  11
BRANCH   1  19
ATOM     19  O3  <0> d           3.193   3.416  -1.231  0.00  0.00    -0.395 OA
ATOM     20  H12 <0> d           4.209   3.793  -1.421  0.00  0.00     0.210 HD
ENDBRANCH   1  19
TORSDOF 7
