REMARK  3 active torsions:
REMARK  status: ('A' for Active; 'I' for Inactive)
REMARK    1  A    between atoms: C1_1  and  S1_2 
REMARK    2  A    between atoms: S1_2  and  C2_3 
REMARK    3  A    between atoms: C5_7  and  N3_9 
ROOT
ATOM      1  C2  <0> d           1.708   2.135  -0.003  0.00  0.00     0.113 A 
ATOM      2  C3  <0> d           2.180   3.451  -0.000  0.00  0.00    -0.030 A 
ATOM      3  C4  <0> d           3.544   3.662  -0.012  0.00  0.00     0.024 A 
ATOM      4  N1  <0> d           4.361   2.618  -0.025  0.00  0.00    -0.075 NA
ATOM      5  C5  <0> d           3.887   1.381  -0.027  0.00  0.00     0.721 A 
ATOM      6  N2  <0> d           2.586   1.136  -0.011  0.00  0.00    -0.056 NA
ATOM      7  H4  <0> d           1.492   4.284   0.011  0.00  0.00     0.090 H 
ATOM      8  H5  <0> d           3.941   4.666  -0.010  0.00  0.00     0.115 H 
ENDROOT
BRANCH   1   9
ATOM      9  S1  <0> d          -0.022   1.806   0.012  0.00  0.00    -0.114 SA
BRANCH   9  10
ATOM     10  C1  <0> d           0.002  -0.004   0.002  0.00  0.00    -0.029 C 
ATOM     11  H1  <0> d           0.512  -0.356  -0.895  0.00  0.00     0.042 H 
ATOM     12  H2  <0> d           0.529  -0.365   0.885  0.00  0.00     0.042 H 
ATOM     13  H3  <0> d          -1.020  -0.381   0.010  0.00  0.00     0.042 H 
ENDBRANCH   9  10
ENDBRANCH   1   9
BRANCH   5  14
ATOM     14  N3  <0> d           4.774   0.319  -0.040  0.00  0.00    -0.231 N 
ATOM     15  H6  <0> d           5.729   0.484  -0.048  0.00  0.00     0.174 HD
ATOM     16  H7  <0> d           4.439  -0.592  -0.042  0.00  0.00     0.174 HD
ENDBRANCH   5  14
TORSDOF 3
