REMARK  7 active torsions:
REMARK  status: ('A' for Active; 'I' for Inactive)
REMARK    1  A    between atoms: C1_1  and  C2_2 
REMARK    2  A    between atoms: C2_2  and  O1_3 
REMARK    3  A    between atoms: O1_3  and  C3_4 
REMARK    4  A    between atoms: C3_4  and  C4_6 
REMARK    5  A    between atoms: C4_6  and  C5_7 
REMARK    6  A    between atoms: C5_7  and  C6_8 
REMARK    7  A    between atoms: C7_9  and  C8_10 
ROOT
ATOM      1  C4  <0> d          -1.329   1.940   0.019  0.00  0.00     0.025 C 
ATOM      2  H6  <0> d          -1.391   2.561   0.913  0.00  0.00     0.049 H 
ATOM      3  H7  <0> d          -1.400   2.570  -0.867  0.00  0.00     0.049 H 
ENDROOT
BRANCH   1   4
ATOM      4  C3  <0> d          -0.014   1.204   0.009  0.00  0.00     0.259 C 
ATOM      5  O2  <0> d           0.002  -0.004   0.002  0.00  0.00    -0.265 OA
BRANCH   4   6
ATOM      6  O1  <0> d           1.139   1.891   0.001  0.00  0.00    -0.322 OA
BRANCH   6   7
ATOM      7  C2  <0> d           2.367   1.117  -0.015  0.00  0.00     0.025 C 
ATOM      8  H4  <0> d           2.409   0.484   0.872  0.00  0.00     0.074 H 
ATOM      9  H5  <0> d           2.392   0.493  -0.908  0.00  0.00     0.074 H 
BRANCH   7  10
ATOM     10  C1  <0> d           3.568   2.065  -0.021  0.00  0.00    -0.056 C 
ATOM     11  H1  <0> d           3.526   2.698  -0.907  0.00  0.00     0.030 H 
ATOM     12  H2  <0> d           3.543   2.689   0.873  0.00  0.00     0.030 H 
ATOM     13  H3  <0> d           4.490   1.484  -0.033  0.00  0.00     0.030 H 
ENDBRANCH   7  10
ENDBRANCH   6   7
ENDBRANCH   4   6
ENDBRANCH   1   4
BRANCH   1  14
ATOM     14  C5  <0> d          -2.479   0.930   0.019  0.00  0.00    -0.001 C 
ATOM     15  H8  <0> d          -2.417   0.309  -0.875  0.00  0.00     0.052 H 
ATOM     16  H9  <0> d          -2.408   0.299   0.905  0.00  0.00     0.052 H 
BRANCH  14  17
ATOM     17  C6  <0> d          -3.764   1.648   0.029  0.00  0.00    -0.106 C 
ATOM     18  C7  <0> d          -4.788   2.221   0.037  0.00  0.00    -0.111 C 
BRANCH  18  19
ATOM     19  C8  <0> d          -6.073   2.940   0.047  0.00  0.00    -0.021 C 
ATOM     20  H10 <0> d          -6.891   2.221   0.047  0.00  0.00     0.044 H 
ATOM     21  H11 <0> d          -6.135   3.561   0.941  0.00  0.00     0.044 H 
ATOM     22  H12 <0> d          -6.143   3.571  -0.839  0.00  0.00     0.044 H 
ENDBRANCH  18  19
ENDBRANCH  14  17
ENDBRANCH   1  14
TORSDOF 7
