REMARK  2 active torsions:
REMARK  status: ('A' for Active; 'I' for Inactive)
REMARK    1  A    between atoms: C1_1  and  C2_2 
REMARK    2  A    between atoms: C6_7  and  C8_10 
ROOT
ATOM      1  C2  <0> d          -2.904   1.556   0.038  0.00  0.00    -0.057 C 
ATOM      2  H1  <0> d          -2.919   2.646   0.044  0.00  0.00     0.039 H 
ATOM      3  C3  <0> d          -2.164   1.050   1.278  0.00  0.00    -0.062 C 
ATOM      4  C4  <0> d          -0.729   1.579   1.267  0.00  0.00    -0.064 C 
ATOM      5  C5  <0> d          -0.013   1.086   0.008  0.00  0.00    -0.052 C 
ATOM      6  C6  <0> d          -0.753   1.593  -1.232  0.00  0.00     0.031 C 
ATOM      7  H2  <0> d          -0.767   2.683  -1.226  0.00  0.00     0.056 H 
ATOM      8  C7  <0> d          -2.188   1.063  -1.221  0.00  0.00    -0.050 C 
ATOM      9  H6  <0> d          -2.674   1.401   2.175  0.00  0.00     0.033 H 
ATOM     10  H7  <0> d          -2.149  -0.040   1.272  0.00  0.00     0.033 H 
ATOM     11  H8  <0> d          -0.202   1.218   2.150  0.00  0.00     0.033 H 
ATOM     12  H9  <0> d          -0.744   2.669   1.273  0.00  0.00     0.033 H 
ATOM     13  H10 <0> d           0.002  -0.004   0.002  0.00  0.00     0.034 H 
ATOM     14  H11 <0> d           1.010   1.463   0.000  0.00  0.00     0.034 H 
ATOM     15  H12 <0> d          -2.715   1.424  -2.104  0.00  0.00     0.034 H 
ATOM     16  H13 <0> d          -2.173  -0.027  -1.227  0.00  0.00     0.034 H 
ENDROOT
BRANCH   1  17
ATOM     17  C1  <0> d          -4.340   1.027   0.049  0.00  0.00    -0.073 C 
ATOM     18  H3  <0> d          -4.325  -0.063   0.043  0.00  0.00     0.028 H 
ATOM     19  H4  <0> d          -4.850   1.378   0.946  0.00  0.00     0.028 H 
ATOM     20  H5  <0> d          -4.867   1.388  -0.834  0.00  0.00     0.028 H 
ENDBRANCH   1  17
BRANCH   6  21
ATOM     21  C8  <0> d          -0.047   1.107  -2.471  0.00  0.00     0.177 C 
ATOM     22  O1  <0> d          -0.633   0.408  -3.265  0.00  0.00    -0.648 OA
ATOM     23  O2  <0> d           1.231   1.450  -2.694  0.00  0.00    -0.648 OA
ENDBRANCH   6  21
TORSDOF 2
