REMARK  0 active torsions:
REMARK  status: ('A' for Active; 'I' for Inactive)
ROOT
ATOM      1  C1  <0> d           2.372   1.434  -0.011  0.00  0.00    -0.082 A 
ATOM      2  C2  <0> d           1.161   2.102   0.002  0.00  0.00    -0.082 A 
ATOM      3  C3  <0> d          -0.017   1.385   0.010  0.00  0.00    -0.075 A 
ATOM      4  C4  <0> d           0.002  -0.004   0.002  0.00  0.00    -0.034 A 
ATOM      5  C5  <0> d           1.207  -0.669  -0.015  0.00  0.00    -0.051 A 
ATOM      6  C6  <0> d           2.393   0.055  -0.019  0.00  0.00    -0.076 A 
ATOM      7  C7  <0> d           1.303  -2.173  -0.032  0.00  0.00    -0.040 C 
ATOM      8  C8  <0> d          -0.019  -2.800   0.405  0.00  0.00    -0.060 C 
ATOM      9  C9  <0> d          -1.148  -2.176  -0.422  0.00  0.00    -0.046 C 
ATOM     10  C10 <0> d          -1.321  -0.724   0.018  0.00  0.00     0.056 C 
ATOM     11  H1  <0> d          -1.740  -0.682   1.034  0.00  0.00     0.070 H 
ATOM     12  C11 <0> d          -2.253  -0.046  -0.899  0.00  0.00     0.068 C 
ATOM     13  N1  <0> d          -2.971   0.476  -1.607  0.00  0.00    -0.197 NA
ATOM     14  H2  <0> d           3.298   1.990  -0.014  0.00  0.00     0.083 H 
ATOM     15  H3  <0> d           1.139   3.182   0.006  0.00  0.00     0.083 H 
ATOM     16  H4  <0> d          -0.962   1.908   0.017  0.00  0.00     0.084 H 
ATOM     17  H5  <0> d           3.338  -0.467  -0.028  0.00  0.00     0.084 H 
ATOM     18  H6  <0> d           1.539  -2.513  -1.052  0.00  0.00     0.040 H 
ATOM     19  H7  <0> d           2.097  -2.498   0.656  0.00  0.00     0.040 H 
ATOM     20  H8  <0> d           0.017  -3.886   0.235  0.00  0.00     0.033 H 
ATOM     21  H9  <0> d          -0.182  -2.603   1.475  0.00  0.00     0.033 H 
ATOM     22  H10 <0> d          -0.886  -2.217  -1.490  0.00  0.00     0.035 H 
ATOM     23  H11 <0> d          -2.080  -2.735  -0.251  0.00  0.00     0.035 H 
ENDROOT
TORSDOF 0
